/*---------------------------------------------------------------------------*\
| =========                 |                                                 |
| \\      /  F ield         | OpenFOAM: The Open Source CFD Toolbox           |
|  \\    /   O peration     | Version:  2112                                  |
|   \\  /    A nd           | Website:  www.openfoam.com                      |
|    \\/     M anipulation  |                                                 |
\*---------------------------------------------------------------------------*/
Build  : 7df292779d-20230614 OPENFOAM=2112 version=plus
Arch   : "LSB;label=64;scalar=64"
AD Tool: "AD v1.0"
Exec   : scalarTransportADFoam
Date   : Apr 07 2025
Time   : 16:48:01
Host   : MSI-LEOPARD
PID    : 742
I/O    : uncollated
Case   : /mnt/c/Users/jgs_j/Desktop/Perth/OpenFOAM/tests/baseCaseSteadyState_50x50_0.01
nProcs : 1
trapFpe: Floating point exception trapping enabled (FOAM_SIGFPE).
fileModificationChecking : Monitoring run-time modified files using timeStampMaster (fileModificationSkew 5, maxFileModificationPolls 20)
allowSystemOperations : Allowing user-supplied system call operations

// * * * * * * * * * * * * * * * * * * * * * * * * * * * * * * * * * * * * * //
Create time

Create mesh for time = 0


SIMPLE: no convergence criteria found. Calculations will run for 0.1 steps.

Reading field T

Reading field U

Reading transportProperties

Reading diffusivity DT

Reading/calculating face flux field phi

Creating finite volume options from "system/fvOptions"

Selecting finite volume options type scalarCodedSource
    Source: codedSource
    - selecting all cells
    - selected 2500 cell(s) with volume 0.1

Calculating scalar transport

Warning: Keyword costFunctionPachtes not found in fvSolution/SIMPLE
Example:
SIMPLE{
  costFunctionPatches (inlet outlet);
}
Creating Tape, size: 1096
Courant Number mean: 0.05 max: 0.05
Time = 0.05

Using dynamicCode for fvOption::codedSource at line 25 in "/mnt/c/Users/jgs_j/Desktop/Perth/OpenFOAM/tests/baseCaseSteadyState_50x50_0.01/system/fvOptions.codedSource.scalarCodedSourceCoeffs"
Selecting finite volume options type codedSource
    Source: codedSource
    - selecting all cells
    - selected 2500 cell(s) with volume 0.1
DILUPBiCGStab:  Solving for T, Initial residual = 1, Final residual = 2.88405e-07, No Iterations 35
Time = 0.1

DILUPBiCGStab:  Solving for T, Initial residual = 0.00126272, Final residual = 9.01101e-07, No Iterations 27
Forward execution finished

Interpret 0 / 2500
DILUPBiCGStab:  Solving for TReverse:  solution singularity
DILUPBiCGStab:  Solving for TReverse, Initial residual = 0.922413, Final residual = 9.11237e-07, No Iterations 29
Interpret 1 / 2500
DILUPBiCGStab:  Solving for TReverse, Initial residual = 0.999012, Final residual = 6.92647e-07, No Iterations 36
DILUPBiCGStab:  Solving for TReverse, Initial residual = 0.787172, Final residual = 9.98042e-07, No Iterations 35
Interpret 2 / 2500
DILUPBiCGStab:  Solving for TReverse, Initial residual = 0.999192, Final residual = 6.29269e-07, No Iterations 37
DILUPBiCGStab:  Solving for TReverse, Initial residual = 0.715665, Final residual = 7.98216e-07, No Iterations 36
Interpret 3 / 2500
DILUPBiCGStab:  Solving for TReverse, Initial residual = 0.999048, Final residual = 3.87486e-07, No Iterations 41
DILUPBiCGStab:  Solving for TReverse, Initial residual = 0.665281, Final residual = 5.85269e-07, No Iterations 38
Interpret 4 / 2500
DILUPBiCGStab:  Solving for TReverse, Initial residual = 0.998805, Final residual = 5.91893e-07, No Iterations 41
DILUPBiCGStab:  Solving for TReverse, Initial residual = 0.626456, Final residual = 2.03993e-07, No Iterations 39
Interpret 5 / 2500
DILUPBiCGStab:  Solving for TReverse, Initial residual = 0.998583, Final residual = 6.82107e-07, No Iterations 40
DILUPBiCGStab:  Solving for TReverse, Initial residual = 0.595223, Final residual = 5.243e-07, No Iterations 40
Interpret 6 / 2500
DILUPBiCGStab:  Solving for TReverse, Initial residual = 0.998376, Final residual = 8.18764e-07, No Iterations 40
DILUPBiCGStab:  Solving for TReverse, Initial residual = 0.569358, Final residual = 4.60001e-07, No Iterations 40
Interpret 7 / 2500
DILUPBiCGStab:  Solving for TReverse, Initial residual = 0.998161, Final residual = 8.85402e-07, No Iterations 41
DILUPBiCGStab:  Solving for TReverse, Initial residual = 0.547475, Final residual = 3.18604e-07, No Iterations 40
Interpret 8 / 2500
DILUPBiCGStab:  Solving for TReverse, Initial residual = 0.997949, Final residual = 6.49269e-07, No Iterations 41
DILUPBiCGStab:  Solving for TReverse, Initial residual = 0.528654, Final residual = 2.70261e-07, No Iterations 38
Interpret 9 / 2500
DILUPBiCGStab:  Solving for TReverse, Initial residual = 0.997744, Final residual = 7.68319e-07, No Iterations 41
DILUPBiCGStab:  Solving for TReverse, Initial residual = 0.512255, Final residual = 2.72745e-07, No Iterations 40
Interpret 10 / 2500
DILUPBiCGStab:  Solving for TReverse, Initial residual = 0.997558, Final residual = 2.37183e-07, No Iterations 41
DILUPBiCGStab:  Solving for TReverse, Initial residual = 0.497811, Final residual = 4.7801e-07, No Iterations 40
Interpret 11 / 2500
DILUPBiCGStab:  Solving for TReverse, Initial residual = 0.997379, Final residual = 7.93292e-07, No Iterations 41
DILUPBiCGStab:  Solving for TReverse, Initial residual = 0.484978, Final residual = 1.29235e-07, No Iterations 40
Interpret 12 / 2500
DILUPBiCGStab:  Solving for TReverse, Initial residual = 0.997196, Final residual = 8.18341e-07, No Iterations 41
DILUPBiCGStab:  Solving for TReverse, Initial residual = 0.473489, Final residual = 1.83823e-07, No Iterations 41
Interpret 13 / 2500
DILUPBiCGStab:  Solving for TReverse, Initial residual = 0.997037, Final residual = 3.70183e-07, No Iterations 40
DILUPBiCGStab:  Solving for TReverse, Initial residual = 0.463137, Final residual = 7.67935e-07, No Iterations 39
Interpret 14 / 2500
DILUPBiCGStab:  Solving for TReverse, Initial residual = 0.996879, Final residual = 9.02911e-07, No Iterations 40
DILUPBiCGStab:  Solving for TReverse, Initial residual = 0.45376, Final residual = 9.65102e-07, No Iterations 40
Interpret 15 / 2500
DILUPBiCGStab:  Solving for TReverse, Initial residual = 0.996702, Final residual = 7.33166e-07, No Iterations 41
DILUPBiCGStab:  Solving for TReverse, Initial residual = 0.445227, Final residual = 5.34956e-07, No Iterations 39
Interpret 16 / 2500
DILUPBiCGStab:  Solving for TReverse, Initial residual = 0.996574, Final residual = 5.48915e-07, No Iterations 41
DILUPBiCGStab:  Solving for TReverse, Initial residual = 0.437428, Final residual = 7.95804e-07, No Iterations 40
Interpret 17 / 2500
DILUPBiCGStab:  Solving for TReverse, Initial residual = 0.996438, Final residual = 9.07248e-07, No Iterations 40
DILUPBiCGStab:  Solving for TReverse, Initial residual = 0.430274, Final residual = 9.47102e-07, No Iterations 39
Interpret 18 / 2500
DILUPBiCGStab:  Solving for TReverse, Initial residual = 0.996303, Final residual = 9.60199e-07, No Iterations 40
DILUPBiCGStab:  Solving for TReverse, Initial residual = 0.423693, Final residual = 4.48916e-07, No Iterations 39
Interpret 19 / 2500
DILUPBiCGStab:  Solving for TReverse, Initial residual = 0.996158, Final residual = 9.40061e-07, No Iterations 41
DILUPBiCGStab:  Solving for TReverse, Initial residual = 0.417621, Final residual = 9.19897e-07, No Iterations 40
Interpret 20 / 2500
DILUPBiCGStab:  Solving for TReverse, Initial residual = 0.996054, Final residual = 9.11784e-07, No Iterations 42
DILUPBiCGStab:  Solving for TReverse, Initial residual = 0.412006, Final residual = 7.92481e-07, No Iterations 40
Interpret 21 / 2500
DILUPBiCGStab:  Solving for TReverse, Initial residual = 0.995929, Final residual = 9.82245e-07, No Iterations 42
DILUPBiCGStab:  Solving for TReverse, Initial residual = 0.406803, Final residual = 4.84071e-07, No Iterations 40
Interpret 22 / 2500
DILUPBiCGStab:  Solving for TReverse, Initial residual = 0.995808, Final residual = 6.751e-07, No Iterations 41
DILUPBiCGStab:  Solving for TReverse, Initial residual = 0.401974, Final residual = 6.02049e-07, No Iterations 39
Interpret 23 / 2500
DILUPBiCGStab:  Solving for TReverse, Initial residual = 0.995696, Final residual = 9.8675e-07, No Iterations 41
DILUPBiCGStab:  Solving for TReverse, Initial residual = 0.397485, Final residual = 8.94363e-07, No Iterations 40
Interpret 24 / 2500
DILUPBiCGStab:  Solving for TReverse, Initial residual = 0.99561, Final residual = 7.2052e-07, No Iterations 41
DILUPBiCGStab:  Solving for TReverse, Initial residual = 0.393307, Final residual = 8.75144e-07, No Iterations 40
Interpret 25 / 2500
DILUPBiCGStab:  Solving for TReverse, Initial residual = 0.995513, Final residual = 9.62779e-07, No Iterations 41
DILUPBiCGStab:  Solving for TReverse, Initial residual = 0.389414, Final residual = 6.93179e-07, No Iterations 40
Interpret 26 / 2500
DILUPBiCGStab:  Solving for TReverse, Initial residual = 0.995412, Final residual = 9.60881e-07, No Iterations 41
DILUPBiCGStab:  Solving for TReverse, Initial residual = 0.385786, Final residual = 8.93891e-07, No Iterations 40
Interpret 27 / 2500
DILUPBiCGStab:  Solving for TReverse, Initial residual = 0.995304, Final residual = 8.87771e-07, No Iterations 41
DILUPBiCGStab:  Solving for TReverse, Initial residual = 0.382402, Final residual = 9.89297e-07, No Iterations 39
Interpret 28 / 2500
DILUPBiCGStab:  Solving for TReverse, Initial residual = 0.995255, Final residual = 9.69714e-07, No Iterations 47
DILUPBiCGStab:  Solving for TReverse, Initial residual = 0.379245, Final residual = 9.27202e-07, No Iterations 39
Interpret 29 / 2500
DILUPBiCGStab:  Solving for TReverse, Initial residual = 0.995164, Final residual = 9.99485e-07, No Iterations 42
DILUPBiCGStab:  Solving for TReverse, Initial residual = 0.376301, Final residual = 7.53459e-07, No Iterations 40
Interpret 30 / 2500
DILUPBiCGStab:  Solving for TReverse, Initial residual = 0.995097, Final residual = 6.63289e-07, No Iterations 43
DILUPBiCGStab:  Solving for TReverse, Initial residual = 0.373557, Final residual = 7.51423e-07, No Iterations 39
Interpret 31 / 2500
DILUPBiCGStab:  Solving for TReverse, Initial residual = 0.995028, Final residual = 7.69219e-07, No Iterations 43
DILUPBiCGStab:  Solving for TReverse, Initial residual = 0.370999, Final residual = 9.40643e-07, No Iterations 40
Interpret 32 / 2500
DILUPBiCGStab:  Solving for TReverse, Initial residual = 0.994959, Final residual = 2.38217e-07, No Iterations 42
DILUPBiCGStab:  Solving for TReverse, Initial residual = 0.36862, Final residual = 4.26766e-07, No Iterations 42
Interpret 33 / 2500
DILUPBiCGStab:  Solving for TReverse, Initial residual = 0.994913, Final residual = 8.37123e-07, No Iterations 42
DILUPBiCGStab:  Solving for TReverse, Initial residual = 0.366407, Final residual = 6.08069e-07, No Iterations 42
Interpret 34 / 2500
DILUPBiCGStab:  Solving for TReverse, Initial residual = 0.994851, Final residual = 9.92162e-07, No Iterations 42
DILUPBiCGStab:  Solving for TReverse, Initial residual = 0.364354, Final residual = 9.53856e-07, No Iterations 42
Interpret 35 / 2500
DILUPBiCGStab:  Solving for TReverse, Initial residual = 0.994794, Final residual = 4.88652e-07, No Iterations 44
DILUPBiCGStab:  Solving for TReverse, Initial residual = 0.362454, Final residual = 8.02923e-07, No Iterations 42
Interpret 36 / 2500
DILUPBiCGStab:  Solving for TReverse, Initial residual = 0.994748, Final residual = 5.83841e-07, No Iterations 44
DILUPBiCGStab:  Solving for TReverse, Initial residual = 0.3607, Final residual = 9.19368e-07, No Iterations 42
Interpret 37 / 2500
DILUPBiCGStab:  Solving for TReverse, Initial residual = 0.994704, Final residual = 8.81763e-07, No Iterations 43
DILUPBiCGStab:  Solving for TReverse, Initial residual = 0.359086, Final residual = 7.27219e-07, No Iterations 41
Interpret 38 / 2500
DILUPBiCGStab:  Solving for TReverse, Initial residual = 0.99467, Final residual = 8.21571e-07, No Iterations 43
DILUPBiCGStab:  Solving for TReverse, Initial residual = 0.35761, Final residual = 9.34421e-07, No Iterations 40
Interpret 39 / 2500
DILUPBiCGStab:  Solving for TReverse, Initial residual = 0.994628, Final residual = 6.41244e-07, No Iterations 45
DILUPBiCGStab:  Solving for TReverse, Initial residual = 0.356265, Final residual = 8.71168e-07, No Iterations 41
Interpret 40 / 2500
DILUPBiCGStab:  Solving for TReverse, Initial residual = 0.994601, Final residual = 6.15956e-07, No Iterations 43
DILUPBiCGStab:  Solving for TReverse, Initial residual = 0.355049, Final residual = 8.53969e-07, No Iterations 39
Interpret 41 / 2500
DILUPBiCGStab:  Solving for TReverse, Initial residual = 0.994581, Final residual = 8.87928e-07, No Iterations 45
DILUPBiCGStab:  Solving for TReverse, Initial residual = 0.353958, Final residual = 9.03248e-07, No Iterations 39
Interpret 42 / 2500
DILUPBiCGStab:  Solving for TReverse, Initial residual = 0.994544, Final residual = 7.48296e-07, No Iterations 42
DILUPBiCGStab:  Solving for TReverse, Initial residual = 0.352992, Final residual = 8.44709e-07, No Iterations 41
Interpret 43 / 2500
DILUPBiCGStab:  Solving for TReverse, Initial residual = 0.994528, Final residual = 9.1462e-07, No Iterations 45
DILUPBiCGStab:  Solving for TReverse, Initial residual = 0.352147, Final residual = 5.82225e-07, No Iterations 39
Interpret 44 / 2500
DILUPBiCGStab:  Solving for TReverse, Initial residual = 0.994517, Final residual = 8.75665e-08, No Iterations 43
DILUPBiCGStab:  Solving for TReverse, Initial residual = 0.351425, Final residual = 7.61158e-07, No Iterations 41
Interpret 45 / 2500
DILUPBiCGStab:  Solving for TReverse, Initial residual = 0.994499, Final residual = 7.4231e-07, No Iterations 44
DILUPBiCGStab:  Solving for TReverse, Initial residual = 0.350824, Final residual = 6.26486e-07, No Iterations 39
Interpret 46 / 2500
DILUPBiCGStab:  Solving for TReverse, Initial residual = 0.994507, Final residual = 7.03903e-07, No Iterations 44
DILUPBiCGStab:  Solving for TReverse, Initial residual = 0.350334, Final residual = 9.3132e-07, No Iterations 40
Interpret 47 / 2500
DILUPBiCGStab:  Solving for TReverse, Initial residual = 0.994452, Final residual = 8.24555e-07, No Iterations 45
DILUPBiCGStab:  Solving for TReverse, Initial residual = 0.349958, Final residual = 6.23356e-07, No Iterations 40
Interpret 48 / 2500
DILUPBiCGStab:  Solving for TReverse, Initial residual = 0.994441, Final residual = 7.14375e-07, No Iterations 43
DILUPBiCGStab:  Solving for TReverse, Initial residual = 0.349654, Final residual = 8.09116e-07, No Iterations 40
Interpret 49 / 2500
DILUPBiCGStab:  Solving for TReverse, Initial residual = 0.994387, Final residual = 5.77822e-07, No Iterations 43
DILUPBiCGStab:  Solving for TReverse, Initial residual = 0.349042, Final residual = 4.28766e-07, No Iterations 41
Interpret 50 / 2500
DILUPBiCGStab:  Solving for TReverse, Initial residual = 0.994335, Final residual = 6.90697e-07, No Iterations 36
DILUPBiCGStab:  Solving for TReverse, Initial residual = 0.787175, Final residual = 9.97182e-07, No Iterations 35
Interpret 51 / 2500
DILUPBiCGStab:  Solving for TReverse, Initial residual = 0.999192, Final residual = 6.76929e-07, No Iterations 40
DILUPBiCGStab:  Solving for TReverse, Initial residual = 0.586997, Final residual = 7.29004e-07, No Iterations 39
Interpret 52 / 2500
DILUPBiCGStab:  Solving for TReverse, Initial residual = 0.998361, Final residual = 1.71882e-07, No Iterations 39
DILUPBiCGStab:  Solving for TReverse, Initial residual = 0.482244, Final residual = 2.75714e-07, No Iterations 41
Interpret 53 / 2500
DILUPBiCGStab:  Solving for TReverse, Initial residual = 0.996672, Final residual = 9.18833e-07, No Iterations 39
DILUPBiCGStab:  Solving for TReverse, Initial residual = 0.418656, Final residual = 9.20001e-07, No Iterations 39
Interpret 54 / 2500
DILUPBiCGStab:  Solving for TReverse, Initial residual = 0.995119, Final residual = 9.38848e-07, No Iterations 40
DILUPBiCGStab:  Solving for TReverse, Initial residual = 0.374795, Final residual = 6.59595e-07, No Iterations 41
Interpret 55 / 2500
DILUPBiCGStab:  Solving for TReverse, Initial residual = 0.994018, Final residual = 9.66319e-07, No Iterations 42
DILUPBiCGStab:  Solving for TReverse, Initial residual = 0.342402, Final residual = 1.89628e-07, No Iterations 40
Interpret 56 / 2500
DILUPBiCGStab:  Solving for TReverse, Initial residual = 0.993086, Final residual = 6.2558e-07, No Iterations 41
DILUPBiCGStab:  Solving for TReverse, Initial residual = 0.317357, Final residual = 6.2345e-07, No Iterations 40
Interpret 57 / 2500
DILUPBiCGStab:  Solving for TReverse, Initial residual = 0.992258, Final residual = 5.06743e-07, No Iterations 41
DILUPBiCGStab:  Solving for TReverse, Initial residual = 0.297326, Final residual = 6.95682e-07, No Iterations 40
Interpret 58 / 2500
DILUPBiCGStab:  Solving for TReverse, Initial residual = 0.991517, Final residual = 6.61816e-07, No Iterations 41
DILUPBiCGStab:  Solving for TReverse, Initial residual = 0.280888, Final residual = 2.66465e-07, No Iterations 41
Interpret 59 / 2500
DILUPBiCGStab:  Solving for TReverse, Initial residual = 0.990908, Final residual = 6.57063e-07, No Iterations 41
DILUPBiCGStab:  Solving for TReverse, Initial residual = 0.267126, Final residual = 9.86386e-07, No Iterations 39
Interpret 60 / 2500
DILUPBiCGStab:  Solving for TReverse, Initial residual = 0.990177, Final residual = 3.38552e-07, No Iterations 42
DILUPBiCGStab:  Solving for TReverse, Initial residual = 0.255415, Final residual = 1.32482e-07, No Iterations 42
Interpret 61 / 2500
DILUPBiCGStab:  Solving for TReverse, Initial residual = 0.989811, Final residual = 9.25887e-07, No Iterations 40
DILUPBiCGStab:  Solving for TReverse, Initial residual = 0.24532, Final residual = 6.962e-07, No Iterations 41
Interpret 62 / 2500
DILUPBiCGStab:  Solving for TReverse, Initial residual = 0.989328, Final residual = 7.74426e-07, No Iterations 43
DILUPBiCGStab:  Solving for TReverse, Initial residual = 0.236515, Final residual = 4.06938e-07, No Iterations 40
Interpret 63 / 2500
DILUPBiCGStab:  Solving for TReverse, Initial residual = 0.988873, Final residual = 7.3079e-07, No Iterations 43
DILUPBiCGStab:  Solving for TReverse, Initial residual = 0.22877, Final residual = 6.56803e-07, No Iterations 40
Interpret 64 / 2500
DILUPBiCGStab:  Solving for TReverse, Initial residual = 0.988474, Final residual = 8.88728e-07, No Iterations 43
DILUPBiCGStab:  Solving for TReverse, Initial residual = 0.221898, Final residual = 4.65426e-07, No Iterations 40
Interpret 65 / 2500
DILUPBiCGStab:  Solving for TReverse, Initial residual = 0.98806, Final residual = 8.85154e-07, No Iterations 41
DILUPBiCGStab:  Solving for TReverse, Initial residual = 0.215763, Final residual = 7.2224e-07, No Iterations 40
Interpret 66 / 2500
DILUPBiCGStab:  Solving for TReverse, Initial residual = 0.987748, Final residual = 9.67203e-07, No Iterations 42
DILUPBiCGStab:  Solving for TReverse, Initial residual = 0.210251, Final residual = 9.88472e-07, No Iterations 39
Interpret 67 / 2500
DILUPBiCGStab:  Solving for TReverse, Initial residual = 0.987335, Final residual = 5.44461e-07, No Iterations 42
DILUPBiCGStab:  Solving for TReverse, Initial residual = 0.205273, Final residual = 7.60041e-07, No Iterations 40
Interpret 68 / 2500
DILUPBiCGStab:  Solving for TReverse, Initial residual = 0.987119, Final residual = 9.70382e-07, No Iterations 42
DILUPBiCGStab:  Solving for TReverse, Initial residual = 0.200758, Final residual = 4.98953e-07, No Iterations 41
Interpret 69 / 2500
DILUPBiCGStab:  Solving for TReverse, Initial residual = 0.986852, Final residual = 7.53374e-07, No Iterations 43
DILUPBiCGStab:  Solving for TReverse, Initial residual = 0.196646, Final residual = 4.92058e-07, No Iterations 41
Interpret 70 / 2500
DILUPBiCGStab:  Solving for TReverse, Initial residual = 0.986584, Final residual = 9.75898e-07, No Iterations 44
DILUPBiCGStab:  Solving for TReverse, Initial residual = 0.19289, Final residual = 6.269e-07, No Iterations 40
Interpret 71 / 2500
DILUPBiCGStab:  Solving for TReverse, Initial residual = 0.986302, Final residual = 1.39654e-07, No Iterations 46
DILUPBiCGStab:  Solving for TReverse, Initial residual = 0.189447, Final residual = 9.65407e-07, No Iterations 40
Interpret 72 / 2500
DILUPBiCGStab:  Solving for TReverse, Initial residual = 0.986072, Final residual = 6.4629e-07, No Iterations 42
DILUPBiCGStab:  Solving for TReverse, Initial residual = 0.186283, Final residual = 9.02943e-07, No Iterations 38
Interpret 73 / 2500
DILUPBiCGStab:  Solving for TReverse, Initial residual = 0.985874, Final residual = 9.66829e-07, No Iterations 44
DILUPBiCGStab:  Solving for TReverse, Initial residual = 0.18337, Final residual = 8.20469e-07, No Iterations 39
Interpret 74 / 2500
DILUPBiCGStab:  Solving for TReverse, Initial residual = 0.985585, Final residual = 6.36565e-07, No Iterations 44
DILUPBiCGStab:  Solving for TReverse, Initial residual = 0.180682, Final residual = 9.07296e-07, No Iterations 41
Interpret 75 / 2500
DILUPBiCGStab:  Solving for TReverse, Initial residual = 0.985423, Final residual = 6.06481e-07, No Iterations 44
DILUPBiCGStab:  Solving for TReverse, Initial residual = 0.178198, Final residual = 8.78623e-07, No Iterations 41
Interpret 76 / 2500
DILUPBiCGStab:  Solving for TReverse, Initial residual = 0.985228, Final residual = 4.09856e-07, No Iterations 45
DILUPBiCGStab:  Solving for TReverse, Initial residual = 0.1759, Final residual = 8.8094e-07, No Iterations 39
Interpret 77 / 2500
DILUPBiCGStab:  Solving for TReverse, Initial residual = 0.98499, Final residual = 9.60584e-07, No Iterations 47
DILUPBiCGStab:  Solving for TReverse, Initial residual = 0.173772, Final residual = 8.36263e-07, No Iterations 39
Interpret 78 / 2500
DILUPBiCGStab:  Solving for TReverse, Initial residual = 0.984821, Final residual = 9.12782e-07, No Iterations 47
DILUPBiCGStab:  Solving for TReverse, Initial residual = 0.171799, Final residual = 4.38772e-07, No Iterations 41
Interpret 79 / 2500
DILUPBiCGStab:  Solving for TReverse, Initial residual = 0.984666, Final residual = 9.76059e-07, No Iterations 46
DILUPBiCGStab:  Solving for TReverse, Initial residual = 0.16997, Final residual = 8.54654e-07, No Iterations 39
Interpret 80 / 2500
DILUPBiCGStab:  Solving for TReverse, Initial residual = 0.984496, Final residual = 5.37251e-07, No Iterations 46
DILUPBiCGStab:  Solving for TReverse, Initial residual = 0.168275, Final residual = 8.27227e-07, No Iterations 40
Interpret 81 / 2500
DILUPBiCGStab:  Solving for TReverse, Initial residual = 0.984357, Final residual = 3.23731e-07, No Iterations 44
DILUPBiCGStab:  Solving for TReverse, Initial residual = 0.166704, Final residual = 9.97559e-07, No Iterations 39
Interpret 82 / 2500
DILUPBiCGStab:  Solving for TReverse, Initial residual = 0.984196, Final residual = 8.8692e-07, No Iterations 45
DILUPBiCGStab:  Solving for TReverse, Initial residual = 0.165248, Final residual = 5.08831e-07, No Iterations 42
Interpret 83 / 2500
DILUPBiCGStab:  Solving for TReverse, Initial residual = 0.984051, Final residual = 9.66177e-07, No Iterations 46
DILUPBiCGStab:  Solving for TReverse, Initial residual = 0.163901, Final residual = 6.15181e-07, No Iterations 41
Interpret 84 / 2500
DILUPBiCGStab:  Solving for TReverse, Initial residual = 0.983912, Final residual = 8.22979e-07, No Iterations 44
DILUPBiCGStab:  Solving for TReverse, Initial residual = 0.162657, Final residual = 5.68563e-07, No Iterations 42
Interpret 85 / 2500
DILUPBiCGStab:  Solving for TReverse, Initial residual = 0.98379, Final residual = 9.86296e-07, No Iterations 43
DILUPBiCGStab:  Solving for TReverse, Initial residual = 0.161509, Final residual = 7.4951e-07, No Iterations 42
Interpret 86 / 2500
DILUPBiCGStab:  Solving for TReverse, Initial residual = 0.98366, Final residual = 7.88242e-07, No Iterations 44
DILUPBiCGStab:  Solving for TReverse, Initial residual = 0.160454, Final residual = 3.08701e-07, No Iterations 41
Interpret 87 / 2500
DILUPBiCGStab:  Solving for TReverse, Initial residual = 0.983521, Final residual = 6.63172e-07, No Iterations 44
DILUPBiCGStab:  Solving for TReverse, Initial residual = 0.159487, Final residual = 8.04183e-07, No Iterations 40
Interpret 88 / 2500
DILUPBiCGStab:  Solving for TReverse, Initial residual = 0.983419, Final residual = 9.77989e-07, No Iterations 47
DILUPBiCGStab:  Solving for TReverse, Initial residual = 0.158604, Final residual = 8.27724e-07, No Iterations 40
Interpret 89 / 2500
DILUPBiCGStab:  Solving for TReverse, Initial residual = 0.983309, Final residual = 9.10281e-07, No Iterations 48
DILUPBiCGStab:  Solving for TReverse, Initial residual = 0.157802, Final residual = 9.42003e-07, No Iterations 39
Interpret 90 / 2500
DILUPBiCGStab:  Solving for TReverse, Initial residual = 0.983195, Final residual = 5.21191e-07, No Iterations 52
DILUPBiCGStab:  Solving for TReverse, Initial residual = 0.157079, Final residual = 9.83755e-07, No Iterations 40
Interpret 91 / 2500
DILUPBiCGStab:  Solving for TReverse, Initial residual = 0.983112, Final residual = 6.7035e-07, No Iterations 49
DILUPBiCGStab:  Solving for TReverse, Initial residual = 0.156432, Final residual = 8.69193e-07, No Iterations 41
Interpret 92 / 2500
DILUPBiCGStab:  Solving for TReverse, Initial residual = 0.983032, Final residual = 2.99904e-07, No Iterations 42
DILUPBiCGStab:  Solving for TReverse, Initial residual = 0.155861, Final residual = 9.45287e-07, No Iterations 41
Interpret 93 / 2500
DILUPBiCGStab:  Solving for TReverse, Initial residual = 0.982954, Final residual = 6.98002e-07, No Iterations 42
DILUPBiCGStab:  Solving for TReverse, Initial residual = 0.155363, Final residual = 9.37988e-07, No Iterations 40
Interpret 94 / 2500
DILUPBiCGStab:  Solving for TReverse, Initial residual = 0.982865, Final residual = 5.78703e-07, No Iterations 45
DILUPBiCGStab:  Solving for TReverse, Initial residual = 0.154937, Final residual = 9.48885e-07, No Iterations 41
Interpret 95 / 2500
DILUPBiCGStab:  Solving for TReverse, Initial residual = 0.982805, Final residual = 7.66849e-07, No Iterations 45
DILUPBiCGStab:  Solving for TReverse, Initial residual = 0.154583, Final residual = 8.3097e-07, No Iterations 40
Interpret 96 / 2500
DILUPBiCGStab:  Solving for TReverse, Initial residual = 0.982708, Final residual = 8.25278e-07, No Iterations 47
DILUPBiCGStab:  Solving for TReverse, Initial residual = 0.154303, Final residual = 2.16731e-07, No Iterations 41
Interpret 97 / 2500
DILUPBiCGStab:  Solving for TReverse, Initial residual = 0.982673, Final residual = 6.48322e-07, No Iterations 44
DILUPBiCGStab:  Solving for TReverse, Initial residual = 0.154091, Final residual = 8.49786e-07, No Iterations 40
Interpret 98 / 2500
DILUPBiCGStab:  Solving for TReverse, Initial residual = 0.982474, Final residual = 9.85876e-07, No Iterations 42
DILUPBiCGStab:  Solving for TReverse, Initial residual = 0.153915, Final residual = 8.71559e-07, No Iterations 41
Interpret 99 / 2500
DILUPBiCGStab:  Solving for TReverse, Initial residual = 0.982085, Final residual = 5.18798e-07, No Iterations 47
DILUPBiCGStab:  Solving for TReverse, Initial residual = 0.153657, Final residual = 9.61344e-07, No Iterations 40
Interpret 100 / 2500
DILUPBiCGStab:  Solving for TReverse, Initial residual = 0.982228, Final residual = 9.27039e-07, No Iterations 39
DILUPBiCGStab:  Solving for TReverse, Initial residual = 0.715654, Final residual = 8.02337e-07, No Iterations 36
Interpret 101 / 2500
DILUPBiCGStab:  Solving for TReverse, Initial residual = 0.999048, Final residual = 2.84746e-07, No Iterations 41
DILUPBiCGStab:  Solving for TReverse, Initial residual = 0.482248, Final residual = 2.62708e-07, No Iterations 41
Interpret 102 / 2500
DILUPBiCGStab:  Solving for TReverse, Initial residual = 0.996673, Final residual = 4.64479e-07, No Iterations 38
DILUPBiCGStab:  Solving for TReverse, Initial residual = 0.375474, Final residual = 7.34568e-07, No Iterations 37
Interpret 103 / 2500
DILUPBiCGStab:  Solving for TReverse, Initial residual = 0.993127, Final residual = 4.05444e-07, No Iterations 41
DILUPBiCGStab:  Solving for TReverse, Initial residual = 0.31484, Final residual = 9.39016e-07, No Iterations 40
Interpret 104 / 2500
DILUPBiCGStab:  Solving for TReverse, Initial residual = 0.990029, Final residual = 9.57179e-07, No Iterations 41
DILUPBiCGStab:  Solving for TReverse, Initial residual = 0.275034, Final residual = 6.10258e-07, No Iterations 40
Interpret 105 / 2500
DILUPBiCGStab:  Solving for TReverse, Initial residual = 0.987473, Final residual = 6.19216e-07, No Iterations 41
DILUPBiCGStab:  Solving for TReverse, Initial residual = 0.24672, Final residual = 3.99328e-07, No Iterations 41
Interpret 106 / 2500
DILUPBiCGStab:  Solving for TReverse, Initial residual = 0.985325, Final residual = 6.20943e-07, No Iterations 41
DILUPBiCGStab:  Solving for TReverse, Initial residual = 0.225446, Final residual = 2.2065e-07, No Iterations 39
Interpret 107 / 2500
DILUPBiCGStab:  Solving for TReverse, Initial residual = 0.98347, Final residual = 2.60371e-07, No Iterations 42
DILUPBiCGStab:  Solving for TReverse, Initial residual = 0.208821, Final residual = 3.12426e-07, No Iterations 41
Interpret 108 / 2500
DILUPBiCGStab:  Solving for TReverse, Initial residual = 0.98177, Final residual = 2.7399e-07, No Iterations 42
DILUPBiCGStab:  Solving for TReverse, Initial residual = 0.195437, Final residual = 5.0481e-07, No Iterations 40
Interpret 109 / 2500
DILUPBiCGStab:  Solving for TReverse, Initial residual = 0.980246, Final residual = 6.37745e-07, No Iterations 41
DILUPBiCGStab:  Solving for TReverse, Initial residual = 0.18441, Final residual = 5.92532e-07, No Iterations 41
Interpret 110 / 2500
DILUPBiCGStab:  Solving for TReverse, Initial residual = 0.978863, Final residual = 7.40788e-07, No Iterations 42
DILUPBiCGStab:  Solving for TReverse, Initial residual = 0.175153, Final residual = 7.4368e-07, No Iterations 38
Interpret 111 / 2500
DILUPBiCGStab:  Solving for TReverse, Initial residual = 0.977605, Final residual = 7.3301e-07, No Iterations 43
DILUPBiCGStab:  Solving for TReverse, Initial residual = 0.167265, Final residual = 8.4771e-07, No Iterations 41
Interpret 112 / 2500
DILUPBiCGStab:  Solving for TReverse, Initial residual = 0.976431, Final residual = 9.03567e-07, No Iterations 43
DILUPBiCGStab:  Solving for TReverse, Initial residual = 0.160458, Final residual = 7.98129e-07, No Iterations 39
Interpret 113 / 2500
DILUPBiCGStab:  Solving for TReverse, Initial residual = 0.9754, Final residual = 7.84936e-07, No Iterations 41
DILUPBiCGStab:  Solving for TReverse, Initial residual = 0.15452, Final residual = 3.37842e-07, No Iterations 41
Interpret 114 / 2500
DILUPBiCGStab:  Solving for TReverse, Initial residual = 0.974378, Final residual = 4.53708e-07, No Iterations 43
DILUPBiCGStab:  Solving for TReverse, Initial residual = 0.149296, Final residual = 8.85839e-07, No Iterations 40
Interpret 115 / 2500
DILUPBiCGStab:  Solving for TReverse, Initial residual = 0.973409, Final residual = 9.76825e-07, No Iterations 47
DILUPBiCGStab:  Solving for TReverse, Initial residual = 0.144663, Final residual = 5.45289e-07, No Iterations 40
Interpret 116 / 2500
DILUPBiCGStab:  Solving for TReverse, Initial residual = 0.972557, Final residual = 1.47925e-07, No Iterations 48
DILUPBiCGStab:  Solving for TReverse, Initial residual = 0.140528, Final residual = 7.43104e-07, No Iterations 39
Interpret 117 / 2500
DILUPBiCGStab:  Solving for TReverse, Initial residual = 0.971777, Final residual = 9.62076e-07, No Iterations 44
DILUPBiCGStab:  Solving for TReverse, Initial residual = 0.136815, Final residual = 6.20926e-07, No Iterations 39
Interpret 118 / 2500
DILUPBiCGStab:  Solving for TReverse, Initial residual = 0.970908, Final residual = 9.75678e-07, No Iterations 46
DILUPBiCGStab:  Solving for TReverse, Initial residual = 0.133465, Final residual = 7.50654e-07, No Iterations 39
Interpret 119 / 2500
DILUPBiCGStab:  Solving for TReverse, Initial residual = 0.970175, Final residual = 9.81882e-07, No Iterations 47
DILUPBiCGStab:  Solving for TReverse, Initial residual = 0.130428, Final residual = 6.3013e-07, No Iterations 39
Interpret 120 / 2500
DILUPBiCGStab:  Solving for TReverse, Initial residual = 0.969519, Final residual = 8.08249e-07, No Iterations 44
DILUPBiCGStab:  Solving for TReverse, Initial residual = 0.127665, Final residual = 9.86155e-07, No Iterations 40
Interpret 121 / 2500
DILUPBiCGStab:  Solving for TReverse, Initial residual = 0.968921, Final residual = 6.88175e-07, No Iterations 41
DILUPBiCGStab:  Solving for TReverse, Initial residual = 0.125143, Final residual = 6.41878e-07, No Iterations 39
Interpret 122 / 2500
DILUPBiCGStab:  Solving for TReverse, Initial residual = 0.96826, Final residual = 6.48568e-07, No Iterations 43
DILUPBiCGStab:  Solving for TReverse, Initial residual = 0.122835, Final residual = 8.90512e-07, No Iterations 39
Interpret 123 / 2500
DILUPBiCGStab:  Solving for TReverse, Initial residual = 0.967689, Final residual = 7.58122e-07, No Iterations 44
DILUPBiCGStab:  Solving for TReverse, Initial residual = 0.120715, Final residual = 9.51604e-07, No Iterations 40
Interpret 124 / 2500
DILUPBiCGStab:  Solving for TReverse, Initial residual = 0.967188, Final residual = 2.16762e-07, No Iterations 46
DILUPBiCGStab:  Solving for TReverse, Initial residual = 0.118766, Final residual = 8.96126e-07, No Iterations 40
Interpret 125 / 2500
DILUPBiCGStab:  Solving for TReverse, Initial residual = 0.966657, Final residual = 7.37379e-07, No Iterations 51
DILUPBiCGStab:  Solving for TReverse, Initial residual = 0.11697, Final residual = 9.37286e-07, No Iterations 41
Interpret 126 / 2500
DILUPBiCGStab:  Solving for TReverse, Initial residual = 0.966152, Final residual = 7.7315e-07, No Iterations 51
DILUPBiCGStab:  Solving for TReverse, Initial residual = 0.115313, Final residual = 9.5219e-07, No Iterations 38
Interpret 127 / 2500
DILUPBiCGStab:  Solving for TReverse, Initial residual = 0.965691, Final residual = 8.75486e-07, No Iterations 46
DILUPBiCGStab:  Solving for TReverse, Initial residual = 0.113781, Final residual = 9.45573e-07, No Iterations 39
Interpret 128 / 2500
DILUPBiCGStab:  Solving for TReverse, Initial residual = 0.965192, Final residual = 1.6824e-07, No Iterations 47
DILUPBiCGStab:  Solving for TReverse, Initial residual = 0.112366, Final residual = 8.74544e-07, No Iterations 40
Interpret 129 / 2500
DILUPBiCGStab:  Solving for TReverse, Initial residual = 0.964795, Final residual = 7.2959e-07, No Iterations 41
DILUPBiCGStab:  Solving for TReverse, Initial residual = 0.111056, Final residual = 9.77027e-07, No Iterations 40
Interpret 130 / 2500
DILUPBiCGStab:  Solving for TReverse, Initial residual = 0.964391, Final residual = 7.35313e-07, No Iterations 48
DILUPBiCGStab:  Solving for TReverse, Initial residual = 0.109843, Final residual = 8.95614e-07, No Iterations 39
Interpret 131 / 2500
DILUPBiCGStab:  Solving for TReverse, Initial residual = 0.963972, Final residual = 9.46165e-07, No Iterations 43
DILUPBiCGStab:  Solving for TReverse, Initial residual = 0.108722, Final residual = 8.23042e-07, No Iterations 40
Interpret 132 / 2500
DILUPBiCGStab:  Solving for TReverse, Initial residual = 0.963628, Final residual = 9.49416e-07, No Iterations 43
DILUPBiCGStab:  Solving for TReverse, Initial residual = 0.107685, Final residual = 7.50113e-07, No Iterations 42
Interpret 133 / 2500
DILUPBiCGStab:  Solving for TReverse, Initial residual = 0.963264, Final residual = 5.45252e-07, No Iterations 47
DILUPBiCGStab:  Solving for TReverse, Initial residual = 0.106727, Final residual = 9.47639e-07, No Iterations 40
Interpret 134 / 2500
DILUPBiCGStab:  Solving for TReverse, Initial residual = 0.962926, Final residual = 7.28674e-07, No Iterations 49
DILUPBiCGStab:  Solving for TReverse, Initial residual = 0.105843, Final residual = 4.22101e-07, No Iterations 43
Interpret 135 / 2500
DILUPBiCGStab:  Solving for TReverse, Initial residual = 0.962591, Final residual = 1.15567e-07, No Iterations 49
DILUPBiCGStab:  Solving for TReverse, Initial residual = 0.105029, Final residual = 6.93942e-07, No Iterations 39
Interpret 136 / 2500
DILUPBiCGStab:  Solving for TReverse, Initial residual = 0.962255, Final residual = 4.21694e-07, No Iterations 47
DILUPBiCGStab:  Solving for TReverse, Initial residual = 0.104282, Final residual = 8.67622e-07, No Iterations 40
Interpret 137 / 2500
DILUPBiCGStab:  Solving for TReverse, Initial residual = 0.962001, Final residual = 9.77693e-07, No Iterations 48
DILUPBiCGStab:  Solving for TReverse, Initial residual = 0.103597, Final residual = 6.74224e-07, No Iterations 41
Interpret 138 / 2500
DILUPBiCGStab:  Solving for TReverse, Initial residual = 0.961733, Final residual = 5.03341e-07, No Iterations 53
DILUPBiCGStab:  Solving for TReverse, Initial residual = 0.102973, Final residual = 2.30246e-07, No Iterations 41
Interpret 139 / 2500
DILUPBiCGStab:  Solving for TReverse, Initial residual = 0.961447, Final residual = 8.62992e-08, No Iterations 49
DILUPBiCGStab:  Solving for TReverse, Initial residual = 0.102407, Final residual = 8.41334e-07, No Iterations 40
Interpret 140 / 2500
DILUPBiCGStab:  Solving for TReverse, Initial residual = 0.961235, Final residual = 4.22684e-07, No Iterations 45
DILUPBiCGStab:  Solving for TReverse, Initial residual = 0.101897, Final residual = 8.34943e-07, No Iterations 40
Interpret 141 / 2500
DILUPBiCGStab:  Solving for TReverse, Initial residual = 0.961009, Final residual = 8.28079e-07, No Iterations 47
DILUPBiCGStab:  Solving for TReverse, Initial residual = 0.101442, Final residual = 9.97638e-07, No Iterations 40
Interpret 142 / 2500
DILUPBiCGStab:  Solving for TReverse, Initial residual = 0.960814, Final residual = 2.31515e-07, No Iterations 44
DILUPBiCGStab:  Solving for TReverse, Initial residual = 0.101039, Final residual = 9.85293e-07, No Iterations 39
Interpret 143 / 2500
DILUPBiCGStab:  Solving for TReverse, Initial residual = 0.960566, Final residual = 9.12606e-07, No Iterations 46
DILUPBiCGStab:  Solving for TReverse, Initial residual = 0.100689, Final residual = 9.62854e-07, No Iterations 41
Interpret 144 / 2500
DILUPBiCGStab:  Solving for TReverse, Initial residual = 0.960455, Final residual = 9.82792e-07, No Iterations 44
DILUPBiCGStab:  Solving for TReverse, Initial residual = 0.100389, Final residual = 9.92981e-07, No Iterations 39
Interpret 145 / 2500
DILUPBiCGStab:  Solving for TReverse, Initial residual = 0.96023, Final residual = 8.70102e-07, No Iterations 46
DILUPBiCGStab:  Solving for TReverse, Initial residual = 0.100142, Final residual = 8.51931e-07, No Iterations 40
Interpret 146 / 2500
DILUPBiCGStab:  Solving for TReverse, Initial residual = 0.960141, Final residual = 8.1746e-07, No Iterations 45
DILUPBiCGStab:  Solving for TReverse, Initial residual = 0.0999451, Final residual = 8.42624e-07, No Iterations 42
Interpret 147 / 2500
DILUPBiCGStab:  Solving for TReverse, Initial residual = 0.960044, Final residual = 2.2257e-07, No Iterations 44
DILUPBiCGStab:  Solving for TReverse, Initial residual = 0.0997955, Final residual = 8.14065e-07, No Iterations 41
Interpret 148 / 2500
DILUPBiCGStab:  Solving for TReverse, Initial residual = 0.959932, Final residual = 7.27884e-07, No Iterations 44
DILUPBiCGStab:  Solving for TReverse, Initial residual = 0.0996703, Final residual = 8.86962e-07, No Iterations 40
Interpret 149 / 2500
DILUPBiCGStab:  Solving for TReverse, Initial residual = 0.959693, Final residual = 3.37333e-07, No Iterations 43
DILUPBiCGStab:  Solving for TReverse, Initial residual = 0.0995103, Final residual = 9.96138e-07, No Iterations 40
Interpret 150 / 2500
DILUPBiCGStab:  Solving for TReverse, Initial residual = 0.96001, Final residual = 9.99454e-07, No Iterations 40
DILUPBiCGStab:  Solving for TReverse, Initial residual = 0.665284, Final residual = 7.21928e-07, No Iterations 39
Interpret 151 / 2500
DILUPBiCGStab:  Solving for TReverse, Initial residual = 0.998787, Final residual = 7.44904e-07, No Iterations 40
DILUPBiCGStab:  Solving for TReverse, Initial residual = 0.418662, Final residual = 8.96189e-07, No Iterations 39
Interpret 152 / 2500
DILUPBiCGStab:  Solving for TReverse, Initial residual = 0.995127, Final residual = 4.80733e-07, No Iterations 41
DILUPBiCGStab:  Solving for TReverse, Initial residual = 0.31484, Final residual = 4.85711e-07, No Iterations 39
Interpret 153 / 2500
DILUPBiCGStab:  Solving for TReverse, Initial residual = 0.990018, Final residual = 5.52316e-07, No Iterations 41
DILUPBiCGStab:  Solving for TReverse, Initial residual = 0.258127, Final residual = 9.15876e-07, No Iterations 39
Interpret 154 / 2500
DILUPBiCGStab:  Solving for TReverse, Initial residual = 0.985271, Final residual = 4.56155e-07, No Iterations 40
DILUPBiCGStab:  Solving for TReverse, Initial residual = 0.221943, Final residual = 6.51042e-07, No Iterations 38
Interpret 155 / 2500
DILUPBiCGStab:  Solving for TReverse, Initial residual = 0.981237, Final residual = 3.77828e-07, No Iterations 42
DILUPBiCGStab:  Solving for TReverse, Initial residual = 0.196746, Final residual = 6.40662e-07, No Iterations 40
Interpret 156 / 2500
DILUPBiCGStab:  Solving for TReverse, Initial residual = 0.978, Final residual = 8.16617e-07, No Iterations 41
DILUPBiCGStab:  Solving for TReverse, Initial residual = 0.178133, Final residual = 9.04208e-07, No Iterations 38
Interpret 157 / 2500
DILUPBiCGStab:  Solving for TReverse, Initial residual = 0.975055, Final residual = 9.8593e-07, No Iterations 41
DILUPBiCGStab:  Solving for TReverse, Initial residual = 0.163783, Final residual = 4.6727e-07, No Iterations 40
Interpret 158 / 2500
DILUPBiCGStab:  Solving for TReverse, Initial residual = 0.972406, Final residual = 9.04034e-07, No Iterations 40
DILUPBiCGStab:  Solving for TReverse, Initial residual = 0.15236, Final residual = 8.4521e-07, No Iterations 38
Interpret 159 / 2500
DILUPBiCGStab:  Solving for TReverse, Initial residual = 0.969895, Final residual = 4.40849e-07, No Iterations 44
DILUPBiCGStab:  Solving for TReverse, Initial residual = 0.143036, Final residual = 5.55592e-07, No Iterations 41
Interpret 160 / 2500
DILUPBiCGStab:  Solving for TReverse, Initial residual = 0.967858, Final residual = 8.33606e-07, No Iterations 42
DILUPBiCGStab:  Solving for TReverse, Initial residual = 0.135273, Final residual = 4.99945e-07, No Iterations 38
Interpret 161 / 2500
DILUPBiCGStab:  Solving for TReverse, Initial residual = 0.965904, Final residual = 9.56502e-07, No Iterations 42
DILUPBiCGStab:  Solving for TReverse, Initial residual = 0.128703, Final residual = 9.62386e-07, No Iterations 39
Interpret 162 / 2500
DILUPBiCGStab:  Solving for TReverse, Initial residual = 0.964006, Final residual = 8.96397e-07, No Iterations 42
DILUPBiCGStab:  Solving for TReverse, Initial residual = 0.123068, Final residual = 4.77046e-07, No Iterations 39
Interpret 163 / 2500
DILUPBiCGStab:  Solving for TReverse, Initial residual = 0.962308, Final residual = 8.77747e-07, No Iterations 42
DILUPBiCGStab:  Solving for TReverse, Initial residual = 0.11818, Final residual = 2.92021e-07, No Iterations 39
Interpret 164 / 2500
DILUPBiCGStab:  Solving for TReverse, Initial residual = 0.960786, Final residual = 5.80338e-07, No Iterations 42
DILUPBiCGStab:  Solving for TReverse, Initial residual = 0.1139, Final residual = 6.26739e-07, No Iterations 39
Interpret 165 / 2500
DILUPBiCGStab:  Solving for TReverse, Initial residual = 0.959348, Final residual = 3.02412e-07, No Iterations 46
DILUPBiCGStab:  Solving for TReverse, Initial residual = 0.110121, Final residual = 7.5901e-07, No Iterations 39
Interpret 166 / 2500
DILUPBiCGStab:  Solving for TReverse, Initial residual = 0.957891, Final residual = 8.29641e-07, No Iterations 49
DILUPBiCGStab:  Solving for TReverse, Initial residual = 0.10676, Final residual = 5.46982e-07, No Iterations 39
Interpret 167 / 2500
DILUPBiCGStab:  Solving for TReverse, Initial residual = 0.956595, Final residual = 7.48666e-07, No Iterations 47
DILUPBiCGStab:  Solving for TReverse, Initial residual = 0.103753, Final residual = 8.20119e-07, No Iterations 38
Interpret 168 / 2500
DILUPBiCGStab:  Solving for TReverse, Initial residual = 0.955467, Final residual = 9.3478e-07, No Iterations 50
DILUPBiCGStab:  Solving for TReverse, Initial residual = 0.101048, Final residual = 9.2561e-07, No Iterations 38
Interpret 169 / 2500
DILUPBiCGStab:  Solving for TReverse, Initial residual = 0.95433, Final residual = 9.95247e-07, No Iterations 47
DILUPBiCGStab:  Solving for TReverse, Initial residual = 0.0986033, Final residual = 8.54836e-07, No Iterations 39
Interpret 170 / 2500
DILUPBiCGStab:  Solving for TReverse, Initial residual = 0.953149, Final residual = 8.96187e-07, No Iterations 46
DILUPBiCGStab:  Solving for TReverse, Initial residual = 0.0963851, Final residual = 7.6068e-07, No Iterations 39
Interpret 171 / 2500
DILUPBiCGStab:  Solving for TReverse, Initial residual = 0.952121, Final residual = 5.22331e-07, No Iterations 43
DILUPBiCGStab:  Solving for TReverse, Initial residual = 0.094365, Final residual = 9.54323e-07, No Iterations 40
Interpret 172 / 2500
DILUPBiCGStab:  Solving for TReverse, Initial residual = 0.951137, Final residual = 8.70616e-07, No Iterations 43
DILUPBiCGStab:  Solving for TReverse, Initial residual = 0.0925196, Final residual = 8.72876e-07, No Iterations 40
Interpret 173 / 2500
DILUPBiCGStab:  Solving for TReverse, Initial residual = 0.950248, Final residual = 4.9357e-07, No Iterations 48
DILUPBiCGStab:  Solving for TReverse, Initial residual = 0.0908294, Final residual = 9.6716e-07, No Iterations 39
Interpret 174 / 2500
DILUPBiCGStab:  Solving for TReverse, Initial residual = 0.949359, Final residual = 9.70736e-07, No Iterations 46
DILUPBiCGStab:  Solving for TReverse, Initial residual = 0.0892775, Final residual = 9.91552e-07, No Iterations 39
Interpret 175 / 2500
DILUPBiCGStab:  Solving for TReverse, Initial residual = 0.948529, Final residual = 7.28559e-07, No Iterations 48
DILUPBiCGStab:  Solving for TReverse, Initial residual = 0.0878501, Final residual = 9.7069e-07, No Iterations 41
Interpret 176 / 2500
DILUPBiCGStab:  Solving for TReverse, Initial residual = 0.947758, Final residual = 7.3252e-07, No Iterations 47
DILUPBiCGStab:  Solving for TReverse, Initial residual = 0.086535, Final residual = 9.75562e-07, No Iterations 41
Interpret 177 / 2500
DILUPBiCGStab:  Solving for TReverse, Initial residual = 0.947006, Final residual = 9.49753e-07, No Iterations 48
DILUPBiCGStab:  Solving for TReverse, Initial residual = 0.0853218, Final residual = 8.21332e-07, No Iterations 41
Interpret 178 / 2500
DILUPBiCGStab:  Solving for TReverse, Initial residual = 0.946284, Final residual = 9.40037e-07, No Iterations 52
DILUPBiCGStab:  Solving for TReverse, Initial residual = 0.0842015, Final residual = 9.39642e-07, No Iterations 43
Interpret 179 / 2500
DILUPBiCGStab:  Solving for TReverse, Initial residual = 0.945609, Final residual = 8.33566e-07, No Iterations 43
DILUPBiCGStab:  Solving for TReverse, Initial residual = 0.0831665, Final residual = 8.87683e-07, No Iterations 42
Interpret 180 / 2500
DILUPBiCGStab:  Solving for TReverse, Initial residual = 0.944953, Final residual = 7.27179e-07, No Iterations 43
DILUPBiCGStab:  Solving for TReverse, Initial residual = 0.0822099, Final residual = 9.98522e-07, No Iterations 44
Interpret 181 / 2500
DILUPBiCGStab:  Solving for TReverse, Initial residual = 0.944345, Final residual = 8.58673e-07, No Iterations 48
DILUPBiCGStab:  Solving for TReverse, Initial residual = 0.0813257, Final residual = 8.71839e-07, No Iterations 42
Interpret 182 / 2500
DILUPBiCGStab:  Solving for TReverse, Initial residual = 0.943748, Final residual = 6.43295e-07, No Iterations 45
DILUPBiCGStab:  Solving for TReverse, Initial residual = 0.0805091, Final residual = 7.73952e-07, No Iterations 43
Interpret 183 / 2500
DILUPBiCGStab:  Solving for TReverse, Initial residual = 0.943186, Final residual = 8.43275e-07, No Iterations 45
DILUPBiCGStab:  Solving for TReverse, Initial residual = 0.0797553, Final residual = 6.38139e-07, No Iterations 41
Interpret 184 / 2500
DILUPBiCGStab:  Solving for TReverse, Initial residual = 0.942645, Final residual = 6.49824e-07, No Iterations 46
DILUPBiCGStab:  Solving for TReverse, Initial residual = 0.0790606, Final residual = 5.44362e-07, No Iterations 41
Interpret 185 / 2500
DILUPBiCGStab:  Solving for TReverse, Initial residual = 0.942127, Final residual = 1.89802e-07, No Iterations 53
DILUPBiCGStab:  Solving for TReverse, Initial residual = 0.0784214, Final residual = 6.81906e-07, No Iterations 43
Interpret 186 / 2500
DILUPBiCGStab:  Solving for TReverse, Initial residual = 0.941675, Final residual = 9.49882e-08, No Iterations 47
DILUPBiCGStab:  Solving for TReverse, Initial residual = 0.0778347, Final residual = 4.98461e-07, No Iterations 42
Interpret 187 / 2500
DILUPBiCGStab:  Solving for TReverse, Initial residual = 0.941213, Final residual = 4.35487e-07, No Iterations 44
DILUPBiCGStab:  Solving for TReverse, Initial residual = 0.077298, Final residual = 7.64445e-07, No Iterations 39
Interpret 188 / 2500
DILUPBiCGStab:  Solving for TReverse, Initial residual = 0.940787, Final residual = 9.7394e-07, No Iterations 46
DILUPBiCGStab:  Solving for TReverse, Initial residual = 0.0768089, Final residual = 9.27742e-07, No Iterations 41
Interpret 189 / 2500
DILUPBiCGStab:  Solving for TReverse, Initial residual = 0.940434, Final residual = 9.81943e-07, No Iterations 45
DILUPBiCGStab:  Solving for TReverse, Initial residual = 0.0763658, Final residual = 9.94113e-07, No Iterations 41
Interpret 190 / 2500
DILUPBiCGStab:  Solving for TReverse, Initial residual = 0.940079, Final residual = 6.97226e-07, No Iterations 49
DILUPBiCGStab:  Solving for TReverse, Initial residual = 0.0759667, Final residual = 9.77e-07, No Iterations 42
Interpret 191 / 2500
DILUPBiCGStab:  Solving for TReverse, Initial residual = 0.93974, Final residual = 4.3644e-07, No Iterations 47
DILUPBiCGStab:  Solving for TReverse, Initial residual = 0.0756104, Final residual = 8.28782e-07, No Iterations 41
Interpret 192 / 2500
DILUPBiCGStab:  Solving for TReverse, Initial residual = 0.93941, Final residual = 8.00509e-07, No Iterations 43
DILUPBiCGStab:  Solving for TReverse, Initial residual = 0.0752958, Final residual = 7.09357e-07, No Iterations 42
Interpret 193 / 2500
DILUPBiCGStab:  Solving for TReverse, Initial residual = 0.939114, Final residual = 5.41436e-07, No Iterations 50
DILUPBiCGStab:  Solving for TReverse, Initial residual = 0.0750217, Final residual = 9.33351e-07, No Iterations 41
Interpret 194 / 2500
DILUPBiCGStab:  Solving for TReverse, Initial residual = 0.938873, Final residual = 9.97768e-07, No Iterations 45
DILUPBiCGStab:  Solving for TReverse, Initial residual = 0.0747879, Final residual = 7.26908e-07, No Iterations 40
Interpret 195 / 2500
DILUPBiCGStab:  Solving for TReverse, Initial residual = 0.938626, Final residual = 3.31861e-07, No Iterations 49
DILUPBiCGStab:  Solving for TReverse, Initial residual = 0.0745942, Final residual = 9.23318e-07, No Iterations 41
Interpret 196 / 2500
DILUPBiCGStab:  Solving for TReverse, Initial residual = 0.938443, Final residual = 9.11737e-07, No Iterations 48
DILUPBiCGStab:  Solving for TReverse, Initial residual = 0.074439, Final residual = 9.81022e-07, No Iterations 41
Interpret 197 / 2500
DILUPBiCGStab:  Solving for TReverse, Initial residual = 0.938272, Final residual = 8.22084e-07, No Iterations 50
DILUPBiCGStab:  Solving for TReverse, Initial residual = 0.0743191, Final residual = 8.89133e-07, No Iterations 41
Interpret 198 / 2500
DILUPBiCGStab:  Solving for TReverse, Initial residual = 0.938099, Final residual = 1.08708e-07, No Iterations 50
DILUPBiCGStab:  Solving for TReverse, Initial residual = 0.0742198, Final residual = 8.89411e-07, No Iterations 41
Interpret 199 / 2500
DILUPBiCGStab:  Solving for TReverse, Initial residual = 0.937864, Final residual = 1.1155e-07, No Iterations 46
DILUPBiCGStab:  Solving for TReverse, Initial residual = 0.0741214, Final residual = 9.51509e-07, No Iterations 41
Interpret 200 / 2500
DILUPBiCGStab:  Solving for TReverse, Initial residual = 0.938589, Final residual = 9.05957e-07, No Iterations 38
DILUPBiCGStab:  Solving for TReverse, Initial residual = 0.626464, Final residual = 8.95425e-07, No Iterations 41
Interpret 201 / 2500
DILUPBiCGStab:  Solving for TReverse, Initial residual = 0.998602, Final residual = 7.68905e-07, No Iterations 41
DILUPBiCGStab:  Solving for TReverse, Initial residual = 0.374792, Final residual = 5.03649e-07, No Iterations 40
Interpret 202 / 2500
DILUPBiCGStab:  Solving for TReverse, Initial residual = 0.994, Final residual = 9.45716e-07, No Iterations 41
DILUPBiCGStab:  Solving for TReverse, Initial residual = 0.275034, Final residual = 6.09116e-07, No Iterations 40
Interpret 203 / 2500
DILUPBiCGStab:  Solving for TReverse, Initial residual = 0.987473, Final residual = 4.61216e-07, No Iterations 40
DILUPBiCGStab:  Solving for TReverse, Initial residual = 0.221943, Final residual = 6.51042e-07, No Iterations 38
Interpret 204 / 2500
DILUPBiCGStab:  Solving for TReverse, Initial residual = 0.981237, Final residual = 6.64601e-07, No Iterations 39
DILUPBiCGStab:  Solving for TReverse, Initial residual = 0.188681, Final residual = 7.66641e-07, No Iterations 37
Interpret 205 / 2500
DILUPBiCGStab:  Solving for TReverse, Initial residual = 0.975942, Final residual = 7.92032e-07, No Iterations 41
DILUPBiCGStab:  Solving for TReverse, Initial residual = 0.165832, Final residual = 7.80416e-07, No Iterations 39
Interpret 206 / 2500
DILUPBiCGStab:  Solving for TReverse, Initial residual = 0.971668, Final residual = 3.96723e-07, No Iterations 42
DILUPBiCGStab:  Solving for TReverse, Initial residual = 0.149134, Final residual = 3.65746e-07, No Iterations 40
Interpret 207 / 2500
DILUPBiCGStab:  Solving for TReverse, Initial residual = 0.967736, Final residual = 8.60746e-07, No Iterations 40
DILUPBiCGStab:  Solving for TReverse, Initial residual = 0.136375, Final residual = 7.93031e-07, No Iterations 38
Interpret 208 / 2500
DILUPBiCGStab:  Solving for TReverse, Initial residual = 0.964076, Final residual = 6.35246e-07, No Iterations 44
DILUPBiCGStab:  Solving for TReverse, Initial residual = 0.126293, Final residual = 8.11468e-07, No Iterations 40
Interpret 209 / 2500
DILUPBiCGStab:  Solving for TReverse, Initial residual = 0.960988, Final residual = 8.18616e-07, No Iterations 41
DILUPBiCGStab:  Solving for TReverse, Initial residual = 0.118116, Final residual = 6.48113e-07, No Iterations 39
Interpret 210 / 2500
DILUPBiCGStab:  Solving for TReverse, Initial residual = 0.958043, Final residual = 7.80517e-07, No Iterations 44
DILUPBiCGStab:  Solving for TReverse, Initial residual = 0.111345, Final residual = 6.12844e-07, No Iterations 39
Interpret 211 / 2500
DILUPBiCGStab:  Solving for TReverse, Initial residual = 0.95529, Final residual = 9.12193e-07, No Iterations 41
DILUPBiCGStab:  Solving for TReverse, Initial residual = 0.105642, Final residual = 8.90264e-07, No Iterations 38
Interpret 212 / 2500
DILUPBiCGStab:  Solving for TReverse, Initial residual = 0.952807, Final residual = 6.39607e-07, No Iterations 44
DILUPBiCGStab:  Solving for TReverse, Initial residual = 0.100772, Final residual = 2.4602e-07, No Iterations 39
Interpret 213 / 2500
DILUPBiCGStab:  Solving for TReverse, Initial residual = 0.950644, Final residual = 4.19538e-07, No Iterations 45
DILUPBiCGStab:  Solving for TReverse, Initial residual = 0.0965629, Final residual = 5.61601e-07, No Iterations 39
Interpret 214 / 2500
DILUPBiCGStab:  Solving for TReverse, Initial residual = 0.94846, Final residual = 9.95936e-07, No Iterations 43
DILUPBiCGStab:  Solving for TReverse, Initial residual = 0.0928894, Final residual = 9.81528e-07, No Iterations 38
Interpret 215 / 2500
DILUPBiCGStab:  Solving for TReverse, Initial residual = 0.9462, Final residual = 8.75938e-07, No Iterations 46
DILUPBiCGStab:  Solving for TReverse, Initial residual = 0.0896555, Final residual = 8.99851e-07, No Iterations 38
Interpret 216 / 2500
DILUPBiCGStab:  Solving for TReverse, Initial residual = 0.944537, Final residual = 9.17651e-07, No Iterations 42
DILUPBiCGStab:  Solving for TReverse, Initial residual = 0.0867877, Final residual = 4.54361e-07, No Iterations 40
Interpret 217 / 2500
DILUPBiCGStab:  Solving for TReverse, Initial residual = 0.942865, Final residual = 8.8764e-07, No Iterations 44
DILUPBiCGStab:  Solving for TReverse, Initial residual = 0.084228, Final residual = 5.54521e-07, No Iterations 39
Interpret 218 / 2500
DILUPBiCGStab:  Solving for TReverse, Initial residual = 0.941212, Final residual = 8.25993e-07, No Iterations 42
DILUPBiCGStab:  Solving for TReverse, Initial residual = 0.0819308, Final residual = 6.10727e-07, No Iterations 39
Interpret 219 / 2500
DILUPBiCGStab:  Solving for TReverse, Initial residual = 0.939596, Final residual = 5.08892e-07, No Iterations 50
DILUPBiCGStab:  Solving for TReverse, Initial residual = 0.0798589, Final residual = 5.85962e-07, No Iterations 39
Interpret 220 / 2500
DILUPBiCGStab:  Solving for TReverse, Initial residual = 0.938179, Final residual = 8.34331e-08, No Iterations 46
DILUPBiCGStab:  Solving for TReverse, Initial residual = 0.0779823, Final residual = 8.74724e-07, No Iterations 37
Interpret 221 / 2500
DILUPBiCGStab:  Solving for TReverse, Initial residual = 0.936812, Final residual = 3.57949e-07, No Iterations 42
DILUPBiCGStab:  Solving for TReverse, Initial residual = 0.0762764, Final residual = 8.26149e-07, No Iterations 38
Interpret 222 / 2500
DILUPBiCGStab:  Solving for TReverse, Initial residual = 0.93531, Final residual = 6.88541e-07, No Iterations 47
DILUPBiCGStab:  Solving for TReverse, Initial residual = 0.0747205, Final residual = 7.11341e-07, No Iterations 39
Interpret 223 / 2500
DILUPBiCGStab:  Solving for TReverse, Initial residual = 0.93419, Final residual = 3.42929e-07, No Iterations 43
DILUPBiCGStab:  Solving for TReverse, Initial residual = 0.0732974, Final residual = 7.0527e-07, No Iterations 37
Interpret 224 / 2500
DILUPBiCGStab:  Solving for TReverse, Initial residual = 0.932904, Final residual = 6.20614e-07, No Iterations 45
DILUPBiCGStab:  Solving for TReverse, Initial residual = 0.0719927, Final residual = 9.78708e-07, No Iterations 40
Interpret 225 / 2500
DILUPBiCGStab:  Solving for TReverse, Initial residual = 0.931922, Final residual = 8.57256e-07, No Iterations 43
DILUPBiCGStab:  Solving for TReverse, Initial residual = 0.0707941, Final residual = 7.55399e-07, No Iterations 39
Interpret 226 / 2500
DILUPBiCGStab:  Solving for TReverse, Initial residual = 0.930822, Final residual = 7.12709e-07, No Iterations 47
DILUPBiCGStab:  Solving for TReverse, Initial residual = 0.0696911, Final residual = 7.8568e-07, No Iterations 39
Interpret 227 / 2500
DILUPBiCGStab:  Solving for TReverse, Initial residual = 0.929795, Final residual = 8.3292e-07, No Iterations 42
DILUPBiCGStab:  Solving for TReverse, Initial residual = 0.0686747, Final residual = 8.55444e-07, No Iterations 39
Interpret 228 / 2500
DILUPBiCGStab:  Solving for TReverse, Initial residual = 0.928828, Final residual = 3.92847e-07, No Iterations 45
DILUPBiCGStab:  Solving for TReverse, Initial residual = 0.0677371, Final residual = 9.93036e-07, No Iterations 39
Interpret 229 / 2500
DILUPBiCGStab:  Solving for TReverse, Initial residual = 0.927942, Final residual = 9.14579e-07, No Iterations 41
DILUPBiCGStab:  Solving for TReverse, Initial residual = 0.0668716, Final residual = 9.4609e-07, No Iterations 39
Interpret 230 / 2500
DILUPBiCGStab:  Solving for TReverse, Initial residual = 0.927075, Final residual = 9.34865e-07, No Iterations 44
DILUPBiCGStab:  Solving for TReverse, Initial residual = 0.0660723, Final residual = 8.15558e-07, No Iterations 40
Interpret 231 / 2500
DILUPBiCGStab:  Solving for TReverse, Initial residual = 0.926234, Final residual = 6.46634e-07, No Iterations 48
DILUPBiCGStab:  Solving for TReverse, Initial residual = 0.0653344, Final residual = 6.28184e-07, No Iterations 41
Interpret 232 / 2500
DILUPBiCGStab:  Solving for TReverse, Initial residual = 0.925447, Final residual = 9.80838e-07, No Iterations 51
DILUPBiCGStab:  Solving for TReverse, Initial residual = 0.0646531, Final residual = 6.97813e-07, No Iterations 42
Interpret 233 / 2500
DILUPBiCGStab:  Solving for TReverse, Initial residual = 0.924712, Final residual = 8.04662e-07, No Iterations 44
DILUPBiCGStab:  Solving for TReverse, Initial residual = 0.0640249, Final residual = 9.50764e-07, No Iterations 39
Interpret 234 / 2500
DILUPBiCGStab:  Solving for TReverse, Initial residual = 0.923971, Final residual = 1.6469e-07, No Iterations 45
DILUPBiCGStab:  Solving for TReverse, Initial residual = 0.0634462, Final residual = 7.65913e-07, No Iterations 41
Interpret 235 / 2500
DILUPBiCGStab:  Solving for TReverse, Initial residual = 0.923322, Final residual = 9.09754e-07, No Iterations 45
DILUPBiCGStab:  Solving for TReverse, Initial residual = 0.062914, Final residual = 5.31655e-07, No Iterations 41
Interpret 236 / 2500
DILUPBiCGStab:  Solving for TReverse, Initial residual = 0.92269, Final residual = 3.41348e-07, No Iterations 44
DILUPBiCGStab:  Solving for TReverse, Initial residual = 0.062426, Final residual = 6.92272e-07, No Iterations 40
Interpret 237 / 2500
DILUPBiCGStab:  Solving for TReverse, Initial residual = 0.922065, Final residual = 4.97266e-07, No Iterations 47
DILUPBiCGStab:  Solving for TReverse, Initial residual = 0.0619798, Final residual = 9.819e-07, No Iterations 39
Interpret 238 / 2500
DILUPBiCGStab:  Solving for TReverse, Initial residual = 0.921519, Final residual = 1.19922e-07, No Iterations 47
DILUPBiCGStab:  Solving for TReverse, Initial residual = 0.0615734, Final residual = 7.59129e-07, No Iterations 43
Interpret 239 / 2500
DILUPBiCGStab:  Solving for TReverse, Initial residual = 0.921028, Final residual = 3.88562e-07, No Iterations 45
DILUPBiCGStab:  Solving for TReverse, Initial residual = 0.0612052, Final residual = 9.0553e-07, No Iterations 41
Interpret 240 / 2500
DILUPBiCGStab:  Solving for TReverse, Initial residual = 0.92055, Final residual = 9.59524e-07, No Iterations 45
DILUPBiCGStab:  Solving for TReverse, Initial residual = 0.0608737, Final residual = 8.46273e-07, No Iterations 40
Interpret 241 / 2500
DILUPBiCGStab:  Solving for TReverse, Initial residual = 0.920121, Final residual = 4.40538e-07, No Iterations 47
DILUPBiCGStab:  Solving for TReverse, Initial residual = 0.0605781, Final residual = 5.96968e-07, No Iterations 41
Interpret 242 / 2500
DILUPBiCGStab:  Solving for TReverse, Initial residual = 0.919622, Final residual = 1.45811e-07, No Iterations 48
DILUPBiCGStab:  Solving for TReverse, Initial residual = 0.0603168, Final residual = 9.31591e-07, No Iterations 39
Interpret 243 / 2500
DILUPBiCGStab:  Solving for TReverse, Initial residual = 0.919208, Final residual = 4.87807e-07, No Iterations 46
DILUPBiCGStab:  Solving for TReverse, Initial residual = 0.0600893, Final residual = 9.88981e-07, No Iterations 41
Interpret 244 / 2500
DILUPBiCGStab:  Solving for TReverse, Initial residual = 0.918973, Final residual = 9.30437e-07, No Iterations 46
DILUPBiCGStab:  Solving for TReverse, Initial residual = 0.0598951, Final residual = 7.84302e-07, No Iterations 40
Interpret 245 / 2500
DILUPBiCGStab:  Solving for TReverse, Initial residual = 0.918672, Final residual = 7.32187e-07, No Iterations 47
DILUPBiCGStab:  Solving for TReverse, Initial residual = 0.0597338, Final residual = 9.3334e-07, No Iterations 41
Interpret 246 / 2500
DILUPBiCGStab:  Solving for TReverse, Initial residual = 0.918388, Final residual = 3.59628e-07, No Iterations 46
DILUPBiCGStab:  Solving for TReverse, Initial residual = 0.0596039, Final residual = 9.59199e-07, No Iterations 41
Interpret 247 / 2500
DILUPBiCGStab:  Solving for TReverse, Initial residual = 0.918166, Final residual = 8.79757e-07, No Iterations 49
DILUPBiCGStab:  Solving for TReverse, Initial residual = 0.0595037, Final residual = 9.15979e-07, No Iterations 39
Interpret 248 / 2500
DILUPBiCGStab:  Solving for TReverse, Initial residual = 0.917924, Final residual = 9.33483e-07, No Iterations 45
DILUPBiCGStab:  Solving for TReverse, Initial residual = 0.059426, Final residual = 9.70181e-07, No Iterations 43
Interpret 249 / 2500
DILUPBiCGStab:  Solving for TReverse, Initial residual = 0.917788, Final residual = 9.55201e-07, No Iterations 49
DILUPBiCGStab:  Solving for TReverse, Initial residual = 0.0593551, Final residual = 9.20982e-07, No Iterations 39
Interpret 250 / 2500
DILUPBiCGStab:  Solving for TReverse, Initial residual = 0.918388, Final residual = 8.97716e-07, No Iterations 40
DILUPBiCGStab:  Solving for TReverse, Initial residual = 0.595224, Final residual = 5.31445e-07, No Iterations 40
Interpret 251 / 2500
DILUPBiCGStab:  Solving for TReverse, Initial residual = 0.998376, Final residual = 7.754e-07, No Iterations 41
DILUPBiCGStab:  Solving for TReverse, Initial residual = 0.342403, Final residual = 6.89937e-07, No Iterations 39
Interpret 252 / 2500
DILUPBiCGStab:  Solving for TReverse, Initial residual = 0.993098, Final residual = 3.48618e-07, No Iterations 42
DILUPBiCGStab:  Solving for TReverse, Initial residual = 0.246719, Final residual = 9.60101e-07, No Iterations 40
Interpret 253 / 2500
DILUPBiCGStab:  Solving for TReverse, Initial residual = 0.985311, Final residual = 4.74074e-07, No Iterations 42
DILUPBiCGStab:  Solving for TReverse, Initial residual = 0.196747, Final residual = 5.14228e-07, No Iterations 40
Interpret 254 / 2500
DILUPBiCGStab:  Solving for TReverse, Initial residual = 0.978005, Final residual = 7.88072e-07, No Iterations 41
DILUPBiCGStab:  Solving for TReverse, Initial residual = 0.165832, Final residual = 7.80417e-07, No Iterations 39
Interpret 255 / 2500
DILUPBiCGStab:  Solving for TReverse, Initial residual = 0.971668, Final residual = 8.73311e-07, No Iterations 41
DILUPBiCGStab:  Solving for TReverse, Initial residual = 0.144793, Final residual = 9.57178e-07, No Iterations 39
Interpret 256 / 2500
DILUPBiCGStab:  Solving for TReverse, Initial residual = 0.966189, Final residual = 9.45303e-07, No Iterations 41
DILUPBiCGStab:  Solving for TReverse, Initial residual = 0.12953, Final residual = 8.13674e-07, No Iterations 38
Interpret 257 / 2500
DILUPBiCGStab:  Solving for TReverse, Initial residual = 0.961327, Final residual = 8.54255e-07, No Iterations 42
DILUPBiCGStab:  Solving for TReverse, Initial residual = 0.117938, Final residual = 8.50484e-07, No Iterations 40
Interpret 258 / 2500
DILUPBiCGStab:  Solving for TReverse, Initial residual = 0.956874, Final residual = 4.73403e-07, No Iterations 41
DILUPBiCGStab:  Solving for TReverse, Initial residual = 0.108826, Final residual = 8.99367e-07, No Iterations 38
Interpret 259 / 2500
DILUPBiCGStab:  Solving for TReverse, Initial residual = 0.952795, Final residual = 9.04913e-07, No Iterations 41
DILUPBiCGStab:  Solving for TReverse, Initial residual = 0.10147, Final residual = 7.31621e-07, No Iterations 39
Interpret 260 / 2500
DILUPBiCGStab:  Solving for TReverse, Initial residual = 0.949232, Final residual = 7.78788e-07, No Iterations 43
DILUPBiCGStab:  Solving for TReverse, Initial residual = 0.0954022, Final residual = 5.72952e-07, No Iterations 40
Interpret 261 / 2500
DILUPBiCGStab:  Solving for TReverse, Initial residual = 0.945884, Final residual = 7.57573e-07, No Iterations 42
DILUPBiCGStab:  Solving for TReverse, Initial residual = 0.0903101, Final residual = 6.39598e-07, No Iterations 40
Interpret 262 / 2500
DILUPBiCGStab:  Solving for TReverse, Initial residual = 0.942768, Final residual = 9.60224e-07, No Iterations 43
DILUPBiCGStab:  Solving for TReverse, Initial residual = 0.085975, Final residual = 8.58743e-07, No Iterations 38
Interpret 263 / 2500
DILUPBiCGStab:  Solving for TReverse, Initial residual = 0.939823, Final residual = 9.92246e-07, No Iterations 47
DILUPBiCGStab:  Solving for TReverse, Initial residual = 0.0822391, Final residual = 9.33095e-07, No Iterations 38
Interpret 264 / 2500
DILUPBiCGStab:  Solving for TReverse, Initial residual = 0.937149, Final residual = 7.38793e-07, No Iterations 42
DILUPBiCGStab:  Solving for TReverse, Initial residual = 0.0789867, Final residual = 6.93099e-07, No Iterations 40
Interpret 265 / 2500
DILUPBiCGStab:  Solving for TReverse, Initial residual = 0.934713, Final residual = 7.20667e-07, No Iterations 44
DILUPBiCGStab:  Solving for TReverse, Initial residual = 0.07613, Final residual = 9.85525e-07, No Iterations 37
Interpret 266 / 2500
DILUPBiCGStab:  Solving for TReverse, Initial residual = 0.932397, Final residual = 1.05442e-08, No Iterations 48
DILUPBiCGStab:  Solving for TReverse, Initial residual = 0.073602, Final residual = 9.52304e-07, No Iterations 38
Interpret 267 / 2500
DILUPBiCGStab:  Solving for TReverse, Initial residual = 0.930117, Final residual = 8.96408e-07, No Iterations 50
DILUPBiCGStab:  Solving for TReverse, Initial residual = 0.0713499, Final residual = 8.38799e-07, No Iterations 38
Interpret 268 / 2500
DILUPBiCGStab:  Solving for TReverse, Initial residual = 0.928045, Final residual = 1.05017e-07, No Iterations 47
DILUPBiCGStab:  Solving for TReverse, Initial residual = 0.0693322, Final residual = 5.92718e-07, No Iterations 40
Interpret 269 / 2500
DILUPBiCGStab:  Solving for TReverse, Initial residual = 0.926156, Final residual = 6.20082e-07, No Iterations 54
DILUPBiCGStab:  Solving for TReverse, Initial residual = 0.0675153, Final residual = 8.20386e-07, No Iterations 40
Interpret 270 / 2500
DILUPBiCGStab:  Solving for TReverse, Initial residual = 0.924301, Final residual = 2.45116e-07, No Iterations 47
DILUPBiCGStab:  Solving for TReverse, Initial residual = 0.0658722, Final residual = 7.09036e-07, No Iterations 39
Interpret 271 / 2500
DILUPBiCGStab:  Solving for TReverse, Initial residual = 0.922558, Final residual = 6.09576e-07, No Iterations 50
DILUPBiCGStab:  Solving for TReverse, Initial residual = 0.0643805, Final residual = 9.73876e-07, No Iterations 38
Interpret 272 / 2500
DILUPBiCGStab:  Solving for TReverse, Initial residual = 0.920861, Final residual = 6.95703e-07, No Iterations 43
DILUPBiCGStab:  Solving for TReverse, Initial residual = 0.0630217, Final residual = 9.27468e-07, No Iterations 40
Interpret 273 / 2500
DILUPBiCGStab:  Solving for TReverse, Initial residual = 0.919349, Final residual = 9.50369e-07, No Iterations 43
DILUPBiCGStab:  Solving for TReverse, Initial residual = 0.0617804, Final residual = 9.20447e-07, No Iterations 40
Interpret 274 / 2500
DILUPBiCGStab:  Solving for TReverse, Initial residual = 0.917872, Final residual = 7.06773e-07, No Iterations 51
DILUPBiCGStab:  Solving for TReverse, Initial residual = 0.0606436, Final residual = 9.67125e-07, No Iterations 39
Interpret 275 / 2500
DILUPBiCGStab:  Solving for TReverse, Initial residual = 0.916462, Final residual = 9.43974e-07, No Iterations 47
DILUPBiCGStab:  Solving for TReverse, Initial residual = 0.0596002, Final residual = 9.92987e-07, No Iterations 39
Interpret 276 / 2500
DILUPBiCGStab:  Solving for TReverse, Initial residual = 0.915125, Final residual = 6.18282e-07, No Iterations 50
DILUPBiCGStab:  Solving for TReverse, Initial residual = 0.058641, Final residual = 9.37509e-07, No Iterations 39
Interpret 277 / 2500
DILUPBiCGStab:  Solving for TReverse, Initial residual = 0.913856, Final residual = 9.6465e-07, No Iterations 45
DILUPBiCGStab:  Solving for TReverse, Initial residual = 0.0577577, Final residual = 9.74569e-07, No Iterations 41
Interpret 278 / 2500
DILUPBiCGStab:  Solving for TReverse, Initial residual = 0.912656, Final residual = 9.94428e-07, No Iterations 44
DILUPBiCGStab:  Solving for TReverse, Initial residual = 0.0569437, Final residual = 9.72969e-07, No Iterations 42
Interpret 279 / 2500
DILUPBiCGStab:  Solving for TReverse, Initial residual = 0.911509, Final residual = 2.66696e-07, No Iterations 44
DILUPBiCGStab:  Solving for TReverse, Initial residual = 0.0561929, Final residual = 8.77321e-07, No Iterations 41
Interpret 280 / 2500
DILUPBiCGStab:  Solving for TReverse, Initial residual = 0.910402, Final residual = 5.07258e-07, No Iterations 46
DILUPBiCGStab:  Solving for TReverse, Initial residual = 0.0555, Final residual = 9.80297e-07, No Iterations 41
Interpret 281 / 2500
DILUPBiCGStab:  Solving for TReverse, Initial residual = 0.909376, Final residual = 4.8713e-07, No Iterations 42
DILUPBiCGStab:  Solving for TReverse, Initial residual = 0.0548607, Final residual = 9.87813e-07, No Iterations 44
Interpret 282 / 2500
DILUPBiCGStab:  Solving for TReverse, Initial residual = 0.908394, Final residual = 8.33386e-07, No Iterations 45
DILUPBiCGStab:  Solving for TReverse, Initial residual = 0.0542709, Final residual = 9.08555e-07, No Iterations 40
Interpret 283 / 2500
DILUPBiCGStab:  Solving for TReverse, Initial residual = 0.907409, Final residual = 6.05662e-07, No Iterations 44
DILUPBiCGStab:  Solving for TReverse, Initial residual = 0.0537272, Final residual = 2.76022e-07, No Iterations 41
Interpret 284 / 2500
DILUPBiCGStab:  Solving for TReverse, Initial residual = 0.906499, Final residual = 8.83689e-07, No Iterations 47
DILUPBiCGStab:  Solving for TReverse, Initial residual = 0.0532267, Final residual = 9.23843e-07, No Iterations 43
Interpret 285 / 2500
DILUPBiCGStab:  Solving for TReverse, Initial residual = 0.905733, Final residual = 9.93097e-07, No Iterations 51
DILUPBiCGStab:  Solving for TReverse, Initial residual = 0.0527668, Final residual = 9.95221e-07, No Iterations 38
Interpret 286 / 2500
DILUPBiCGStab:  Solving for TReverse, Initial residual = 0.904889, Final residual = 5.01909e-07, No Iterations 44
DILUPBiCGStab:  Solving for TReverse, Initial residual = 0.0523451, Final residual = 5.36904e-07, No Iterations 39
Interpret 287 / 2500
DILUPBiCGStab:  Solving for TReverse, Initial residual = 0.904143, Final residual = 2.19164e-07, No Iterations 50
DILUPBiCGStab:  Solving for TReverse, Initial residual = 0.0519598, Final residual = 8.00078e-07, No Iterations 42
Interpret 288 / 2500
DILUPBiCGStab:  Solving for TReverse, Initial residual = 0.903512, Final residual = 5.17965e-07, No Iterations 43
DILUPBiCGStab:  Solving for TReverse, Initial residual = 0.0516089, Final residual = 9.3263e-07, No Iterations 43
Interpret 289 / 2500
DILUPBiCGStab:  Solving for TReverse, Initial residual = 0.90288, Final residual = 9.85432e-07, No Iterations 45
DILUPBiCGStab:  Solving for TReverse, Initial residual = 0.0512911, Final residual = 6.88341e-07, No Iterations 40
Interpret 290 / 2500
DILUPBiCGStab:  Solving for TReverse, Initial residual = 0.902217, Final residual = 5.22978e-07, No Iterations 45
DILUPBiCGStab:  Solving for TReverse, Initial residual = 0.0510052, Final residual = 7.16812e-07, No Iterations 41
Interpret 291 / 2500
DILUPBiCGStab:  Solving for TReverse, Initial residual = 0.901693, Final residual = 7.63799e-07, No Iterations 51
DILUPBiCGStab:  Solving for TReverse, Initial residual = 0.05075, Final residual = 9.80928e-07, No Iterations 42
Interpret 292 / 2500
DILUPBiCGStab:  Solving for TReverse, Initial residual = 0.901213, Final residual = 6.29607e-07, No Iterations 50
DILUPBiCGStab:  Solving for TReverse, Initial residual = 0.0505245, Final residual = 3.68852e-07, No Iterations 41
Interpret 293 / 2500
DILUPBiCGStab:  Solving for TReverse, Initial residual = 0.900653, Final residual = 2.32259e-07, No Iterations 45
DILUPBiCGStab:  Solving for TReverse, Initial residual = 0.050328, Final residual = 8.42143e-07, No Iterations 43
Interpret 294 / 2500
DILUPBiCGStab:  Solving for TReverse, Initial residual = 0.900298, Final residual = 7.21829e-07, No Iterations 47
DILUPBiCGStab:  Solving for TReverse, Initial residual = 0.0501601, Final residual = 8.74888e-07, No Iterations 40
Interpret 295 / 2500
DILUPBiCGStab:  Solving for TReverse, Initial residual = 0.899902, Final residual = 7.54745e-07, No Iterations 50
DILUPBiCGStab:  Solving for TReverse, Initial residual = 0.0500207, Final residual = 9.89187e-07, No Iterations 40
Interpret 296 / 2500
DILUPBiCGStab:  Solving for TReverse, Initial residual = 0.899615, Final residual = 5.85383e-07, No Iterations 50
DILUPBiCGStab:  Solving for TReverse, Initial residual = 0.0499077, Final residual = 9.8771e-07, No Iterations 39
Interpret 297 / 2500
DILUPBiCGStab:  Solving for TReverse, Initial residual = 0.899312, Final residual = 8.24817e-07, No Iterations 49
DILUPBiCGStab:  Solving for TReverse, Initial residual = 0.0498221, Final residual = 7.61986e-07, No Iterations 40
Interpret 298 / 2500
DILUPBiCGStab:  Solving for TReverse, Initial residual = 0.899035, Final residual = 9.37775e-07, No Iterations 46
DILUPBiCGStab:  Solving for TReverse, Initial residual = 0.0497615, Final residual = 6.48123e-07, No Iterations 40
Interpret 299 / 2500
DILUPBiCGStab:  Solving for TReverse, Initial residual = 0.898809, Final residual = 8.05269e-07, No Iterations 44
DILUPBiCGStab:  Solving for TReverse, Initial residual = 0.0497044, Final residual = 9.8743e-07, No Iterations 42
Interpret 300 / 2500
DILUPBiCGStab:  Solving for TReverse, Initial residual = 0.899788, Final residual = 8.01698e-07, No Iterations 40
DILUPBiCGStab:  Solving for TReverse, Initial residual = 0.569358, Final residual = 4.60905e-07, No Iterations 40
Interpret 301 / 2500
DILUPBiCGStab:  Solving for TReverse, Initial residual = 0.998161, Final residual = 9.36385e-07, No Iterations 41
DILUPBiCGStab:  Solving for TReverse, Initial residual = 0.317357, Final residual = 7.49177e-07, No Iterations 40
Interpret 302 / 2500
DILUPBiCGStab:  Solving for TReverse, Initial residual = 0.992255, Final residual = 3.77404e-07, No Iterations 40
DILUPBiCGStab:  Solving for TReverse, Initial residual = 0.225445, Final residual = 7.87432e-07, No Iterations 40
Interpret 303 / 2500
DILUPBiCGStab:  Solving for TReverse, Initial residual = 0.983431, Final residual = 4.46983e-07, No Iterations 42
DILUPBiCGStab:  Solving for TReverse, Initial residual = 0.178132, Final residual = 3.45185e-07, No Iterations 39
Interpret 304 / 2500
DILUPBiCGStab:  Solving for TReverse, Initial residual = 0.975009, Final residual = 6.48161e-07, No Iterations 41
DILUPBiCGStab:  Solving for TReverse, Initial residual = 0.149134, Final residual = 6.60145e-07, No Iterations 39
Interpret 305 / 2500
DILUPBiCGStab:  Solving for TReverse, Initial residual = 0.967624, Final residual = 9.50379e-07, No Iterations 41
DILUPBiCGStab:  Solving for TReverse, Initial residual = 0.12953, Final residual = 5.38114e-07, No Iterations 39
Interpret 306 / 2500
DILUPBiCGStab:  Solving for TReverse, Initial residual = 0.961218, Final residual = 2.23573e-07, No Iterations 43
DILUPBiCGStab:  Solving for TReverse, Initial residual = 0.115383, Final residual = 6.58281e-07, No Iterations 40
Interpret 307 / 2500
DILUPBiCGStab:  Solving for TReverse, Initial residual = 0.955447, Final residual = 1.03287e-07, No Iterations 44
DILUPBiCGStab:  Solving for TReverse, Initial residual = 0.104685, Final residual = 4.7642e-07, No Iterations 39
Interpret 308 / 2500
DILUPBiCGStab:  Solving for TReverse, Initial residual = 0.950294, Final residual = 8.72901e-07, No Iterations 41
DILUPBiCGStab:  Solving for TReverse, Initial residual = 0.0963087, Final residual = 6.97802e-07, No Iterations 40
Interpret 309 / 2500
DILUPBiCGStab:  Solving for TReverse, Initial residual = 0.945489, Final residual = 7.05215e-07, No Iterations 41
DILUPBiCGStab:  Solving for TReverse, Initial residual = 0.0895684, Final residual = 7.68757e-07, No Iterations 40
Interpret 310 / 2500
DILUPBiCGStab:  Solving for TReverse, Initial residual = 0.941193, Final residual = 6.12664e-07, No Iterations 41
DILUPBiCGStab:  Solving for TReverse, Initial residual = 0.0840257, Final residual = 2.03403e-07, No Iterations 40
Interpret 311 / 2500
DILUPBiCGStab:  Solving for TReverse, Initial residual = 0.937187, Final residual = 5.04778e-07, No Iterations 43
[...]
DILUPBiCGStab:  Solving for TReverse, Initial residual = 0.638825, Final residual = 6.56759e-16, No Iterations 1
Interpret 2420 / 2500
DILUPBiCGStab:  Solving for TReverse, Initial residual = 0.99008, Final residual = 8.68866e-16, No Iterations 1
DILUPBiCGStab:  Solving for TReverse, Initial residual = 0.630735, Final residual = 5.8012e-16, No Iterations 1
Interpret 2421 / 2500
DILUPBiCGStab:  Solving for TReverse, Initial residual = 0.990192, Final residual = 9.47476e-16, No Iterations 1
DILUPBiCGStab:  Solving for TReverse, Initial residual = 0.622873, Final residual = 7.1895e-16, No Iterations 1
Interpret 2422 / 2500
DILUPBiCGStab:  Solving for TReverse, Initial residual = 0.990323, Final residual = 9.72477e-16, No Iterations 1
DILUPBiCGStab:  Solving for TReverse, Initial residual = 0.615232, Final residual = 7.43301e-16, No Iterations 1
Interpret 2423 / 2500
DILUPBiCGStab:  Solving for TReverse, Initial residual = 0.990485, Final residual = 9.13446e-16, No Iterations 1
DILUPBiCGStab:  Solving for TReverse, Initial residual = 0.607807, Final residual = 7.20261e-16, No Iterations 1
Interpret 2424 / 2500
DILUPBiCGStab:  Solving for TReverse, Initial residual = 0.990692, Final residual = 1.12696e-15, No Iterations 1
DILUPBiCGStab:  Solving for TReverse, Initial residual = 0.600589, Final residual = 7.25572e-16, No Iterations 1
Interpret 2425 / 2500
DILUPBiCGStab:  Solving for TReverse, Initial residual = 0.990959, Final residual = 1.08165e-15, No Iterations 1
DILUPBiCGStab:  Solving for TReverse, Initial residual = 0.593568, Final residual = 7.20949e-16, No Iterations 1
Interpret 2426 / 2500
DILUPBiCGStab:  Solving for TReverse, Initial residual = 0.991306, Final residual = 1.10559e-15, No Iterations 1
DILUPBiCGStab:  Solving for TReverse, Initial residual = 0.586736, Final residual = 6.96509e-16, No Iterations 1
Interpret 2427 / 2500
DILUPBiCGStab:  Solving for TReverse, Initial residual = 0.991754, Final residual = 1.19923e-15, No Iterations 1
DILUPBiCGStab:  Solving for TReverse, Initial residual = 0.580087, Final residual = 7.48351e-16, No Iterations 1
Interpret 2428 / 2500
DILUPBiCGStab:  Solving for TReverse, Initial residual = 0.992325, Final residual = 1.07868e-15, No Iterations 1
DILUPBiCGStab:  Solving for TReverse, Initial residual = 0.573614, Final residual = 7.50135e-16, No Iterations 1
Interpret 2429 / 2500
DILUPBiCGStab:  Solving for TReverse, Initial residual = 0.993045, Final residual = 1.21749e-15, No Iterations 1
DILUPBiCGStab:  Solving for TReverse, Initial residual = 0.567318, Final residual = 6.98243e-16, No Iterations 1
Interpret 2430 / 2500
DILUPBiCGStab:  Solving for TReverse, Initial residual = 0.993935, Final residual = 1.14919e-15, No Iterations 1
DILUPBiCGStab:  Solving for TReverse, Initial residual = 0.5612, Final residual = 7.64962e-16, No Iterations 1
Interpret 2431 / 2500
DILUPBiCGStab:  Solving for TReverse, Initial residual = 0.995009, Final residual = 1.20897e-15, No Iterations 1
DILUPBiCGStab:  Solving for TReverse, Initial residual = 0.555262, Final residual = 7.32307e-16, No Iterations 1
Interpret 2432 / 2500
DILUPBiCGStab:  Solving for TReverse, Initial residual = 0.996283, Final residual = 1.17948e-15, No Iterations 1
DILUPBiCGStab:  Solving for TReverse, Initial residual = 0.549504, Final residual = 7.38196e-16, No Iterations 1
Interpret 2433 / 2500
DILUPBiCGStab:  Solving for TReverse, Initial residual = 0.997767, Final residual = 1.28561e-15, No Iterations 1
DILUPBiCGStab:  Solving for TReverse, Initial residual = 0.543931, Final residual = 7.26133e-16, No Iterations 1
Interpret 2434 / 2500
DILUPBiCGStab:  Solving for TReverse, Initial residual = 0.999446, Final residual = 1.228e-15, No Iterations 1
DILUPBiCGStab:  Solving for TReverse, Initial residual = 0.538551, Final residual = 7.69398e-16, No Iterations 1
Interpret 2435 / 2500
DILUPBiCGStab:  Solving for TReverse, Initial residual = 0.9985, Final residual = 1.32123e-15, No Iterations 1
DILUPBiCGStab:  Solving for TReverse, Initial residual = 0.533369, Final residual = 7.62846e-16, No Iterations 1
Interpret 2436 / 2500
DILUPBiCGStab:  Solving for TReverse, Initial residual = 0.996145, Final residual = 1.34275e-15, No Iterations 1
DILUPBiCGStab:  Solving for TReverse, Initial residual = 0.528395, Final residual = 7.37234e-16, No Iterations 1
Interpret 2437 / 2500
DILUPBiCGStab:  Solving for TReverse, Initial residual = 0.993624, Final residual = 1.42773e-15, No Iterations 1
DILUPBiCGStab:  Solving for TReverse, Initial residual = 0.52364, Final residual = 7.97229e-16, No Iterations 1
Interpret 2438 / 2500
DILUPBiCGStab:  Solving for TReverse, Initial residual = 0.990983, Final residual = 1.31581e-15, No Iterations 1
DILUPBiCGStab:  Solving for TReverse, Initial residual = 0.519115, Final residual = 7.41669e-16, No Iterations 1
Interpret 2439 / 2500
DILUPBiCGStab:  Solving for TReverse, Initial residual = 0.988276, Final residual = 1.30416e-15, No Iterations 1
DILUPBiCGStab:  Solving for TReverse, Initial residual = 0.514832, Final residual = 8.02502e-16, No Iterations 1
Interpret 2440 / 2500
DILUPBiCGStab:  Solving for TReverse, Initial residual = 0.985561, Final residual = 1.42284e-15, No Iterations 1
DILUPBiCGStab:  Solving for TReverse, Initial residual = 0.510795, Final residual = 8.13275e-16, No Iterations 1
Interpret 2441 / 2500
DILUPBiCGStab:  Solving for TReverse, Initial residual = 0.982905, Final residual = 1.41318e-15, No Iterations 1
DILUPBiCGStab:  Solving for TReverse, Initial residual = 0.507001, Final residual = 8.31367e-16, No Iterations 1
Interpret 2442 / 2500
DILUPBiCGStab:  Solving for TReverse, Initial residual = 0.980371, Final residual = 1.47576e-15, No Iterations 1
DILUPBiCGStab:  Solving for TReverse, Initial residual = 0.503448, Final residual = 7.86973e-16, No Iterations 1
Interpret 2443 / 2500
DILUPBiCGStab:  Solving for TReverse, Initial residual = 0.97802, Final residual = 1.47018e-15, No Iterations 1
DILUPBiCGStab:  Solving for TReverse, Initial residual = 0.50013, Final residual = 8.14985e-16, No Iterations 1
Interpret 2444 / 2500
DILUPBiCGStab:  Solving for TReverse, Initial residual = 0.975912, Final residual = 1.40585e-15, No Iterations 1
DILUPBiCGStab:  Solving for TReverse, Initial residual = 0.497044, Final residual = 7.75644e-16, No Iterations 1
Interpret 2445 / 2500
DILUPBiCGStab:  Solving for TReverse, Initial residual = 0.974094, Final residual = 1.44826e-15, No Iterations 1
DILUPBiCGStab:  Solving for TReverse, Initial residual = 0.494182, Final residual = 8.19824e-16, No Iterations 1
Interpret 2446 / 2500
DILUPBiCGStab:  Solving for TReverse, Initial residual = 0.972609, Final residual = 1.45528e-15, No Iterations 1
DILUPBiCGStab:  Solving for TReverse, Initial residual = 0.491539, Final residual = 7.84511e-16, No Iterations 1
Interpret 2447 / 2500
DILUPBiCGStab:  Solving for TReverse, Initial residual = 0.971486, Final residual = 1.44704e-15, No Iterations 1
DILUPBiCGStab:  Solving for TReverse, Initial residual = 0.489109, Final residual = 8.22278e-16, No Iterations 1
Interpret 2448 / 2500
DILUPBiCGStab:  Solving for TReverse, Initial residual = 0.970746, Final residual = 1.46973e-15, No Iterations 1
DILUPBiCGStab:  Solving for TReverse, Initial residual = 0.486884, Final residual = 8.29472e-16, No Iterations 1
Interpret 2449 / 2500
DILUPBiCGStab:  Solving for TReverse, Initial residual = 0.970685, Final residual = 1.58614e-15, No Iterations 1
DILUPBiCGStab:  Solving for TReverse, Initial residual = 0.459651, Final residual = 8.79094e-16, No Iterations 1
Interpret 2450 / 2500
DILUPBiCGStab:  Solving for TReverse, Initial residual = 0.963544, Final residual = 7.14275e-16, No Iterations 1
DILUPBiCGStab:  Solving for TReverse, Initial residual = 0.949848, Final residual = 9.78146e-17, No Iterations 1
Interpret 2451 / 2500
DILUPBiCGStab:  Solving for TReverse, Initial residual = 0.962279, Final residual = 1.86606e-16, No Iterations 1
DILUPBiCGStab:  Solving for TReverse, Initial residual = 0.803439, Final residual = 1.82458e-16, No Iterations 1
Interpret 2452 / 2500
DILUPBiCGStab:  Solving for TReverse, Initial residual = 0.979649, Final residual = 2.88845e-16, No Iterations 1
DILUPBiCGStab:  Solving for TReverse, Initial residual = 0.789836, Final residual = 2.01527e-16, No Iterations 1
Interpret 2453 / 2500
DILUPBiCGStab:  Solving for TReverse, Initial residual = 0.981366, Final residual = 4.33678e-16, No Iterations 1
DILUPBiCGStab:  Solving for TReverse, Initial residual = 0.778936, Final residual = 2.70262e-16, No Iterations 1
Interpret 2454 / 2500
DILUPBiCGStab:  Solving for TReverse, Initial residual = 0.982858, Final residual = 3.81284e-16, No Iterations 1
DILUPBiCGStab:  Solving for TReverse, Initial residual = 0.767391, Final residual = 3.60912e-16, No Iterations 1
Interpret 2455 / 2500
DILUPBiCGStab:  Solving for TReverse, Initial residual = 0.983955, Final residual = 4.61359e-16, No Iterations 1
DILUPBiCGStab:  Solving for TReverse, Initial residual = 0.754912, Final residual = 3.46103e-16, No Iterations 1
Interpret 2456 / 2500
DILUPBiCGStab:  Solving for TReverse, Initial residual = 0.984752, Final residual = 4.12409e-16, No Iterations 1
DILUPBiCGStab:  Solving for TReverse, Initial residual = 0.742593, Final residual = 3.73255e-16, No Iterations 1
Interpret 2457 / 2500
DILUPBiCGStab:  Solving for TReverse, Initial residual = 0.985403, Final residual = 5.25661e-16, No Iterations 1
DILUPBiCGStab:  Solving for TReverse, Initial residual = 0.730318, Final residual = 4.68554e-16, No Iterations 1
Interpret 2458 / 2500
DILUPBiCGStab:  Solving for TReverse, Initial residual = 0.985938, Final residual = 4.61641e-16, No Iterations 1
DILUPBiCGStab:  Solving for TReverse, Initial residual = 0.718442, Final residual = 4.14559e-16, No Iterations 1
Interpret 2459 / 2500
DILUPBiCGStab:  Solving for TReverse, Initial residual = 0.986405, Final residual = 5.32412e-16, No Iterations 1
DILUPBiCGStab:  Solving for TReverse, Initial residual = 0.70694, Final residual = 4.89951e-16, No Iterations 1
Interpret 2460 / 2500
DILUPBiCGStab:  Solving for TReverse, Initial residual = 0.986818, Final residual = 6.66619e-16, No Iterations 1
DILUPBiCGStab:  Solving for TReverse, Initial residual = 0.695791, Final residual = 4.13537e-16, No Iterations 1
Interpret 2461 / 2500
DILUPBiCGStab:  Solving for TReverse, Initial residual = 0.987189, Final residual = 6.81722e-16, No Iterations 1
DILUPBiCGStab:  Solving for TReverse, Initial residual = 0.684991, Final residual = 4.70535e-16, No Iterations 1
Interpret 2462 / 2500
DILUPBiCGStab:  Solving for TReverse, Initial residual = 0.987527, Final residual = 7.76693e-16, No Iterations 1
DILUPBiCGStab:  Solving for TReverse, Initial residual = 0.674579, Final residual = 5.03263e-16, No Iterations 1
Interpret 2463 / 2500
DILUPBiCGStab:  Solving for TReverse, Initial residual = 0.987839, Final residual = 7.27796e-16, No Iterations 1
DILUPBiCGStab:  Solving for TReverse, Initial residual = 0.664521, Final residual = 5.20274e-16, No Iterations 1
Interpret 2464 / 2500
DILUPBiCGStab:  Solving for TReverse, Initial residual = 0.988069, Final residual = 8.1929e-16, No Iterations 1
DILUPBiCGStab:  Solving for TReverse, Initial residual = 0.654808, Final residual = 5.69244e-16, No Iterations 1
Interpret 2465 / 2500
DILUPBiCGStab:  Solving for TReverse, Initial residual = 0.988254, Final residual = 8.70677e-16, No Iterations 1
DILUPBiCGStab:  Solving for TReverse, Initial residual = 0.6454, Final residual = 5.47589e-16, No Iterations 1
Interpret 2466 / 2500
DILUPBiCGStab:  Solving for TReverse, Initial residual = 0.988406, Final residual = 9.03018e-16, No Iterations 1
DILUPBiCGStab:  Solving for TReverse, Initial residual = 0.636292, Final residual = 5.66163e-16, No Iterations 1
Interpret 2467 / 2500
DILUPBiCGStab:  Solving for TReverse, Initial residual = 0.988539, Final residual = 9.91529e-16, No Iterations 1
DILUPBiCGStab:  Solving for TReverse, Initial residual = 0.627486, Final residual = 6.08826e-16, No Iterations 1
Interpret 2468 / 2500
DILUPBiCGStab:  Solving for TReverse, Initial residual = 0.98866, Final residual = 9.85421e-16, No Iterations 1
DILUPBiCGStab:  Solving for TReverse, Initial residual = 0.618963, Final residual = 7.00089e-16, No Iterations 1
Interpret 2469 / 2500
DILUPBiCGStab:  Solving for TReverse, Initial residual = 0.988776, Final residual = 9.44467e-16, No Iterations 1
DILUPBiCGStab:  Solving for TReverse, Initial residual = 0.610703, Final residual = 6.69582e-16, No Iterations 1
Interpret 2470 / 2500
DILUPBiCGStab:  Solving for TReverse, Initial residual = 0.988892, Final residual = 1.08842e-15, No Iterations 1
DILUPBiCGStab:  Solving for TReverse, Initial residual = 0.602697, Final residual = 6.59214e-16, No Iterations 1
Interpret 2471 / 2500
DILUPBiCGStab:  Solving for TReverse, Initial residual = 0.989016, Final residual = 1.12932e-15, No Iterations 1
DILUPBiCGStab:  Solving for TReverse, Initial residual = 0.594921, Final residual = 7.52783e-16, No Iterations 1
Interpret 2472 / 2500
DILUPBiCGStab:  Solving for TReverse, Initial residual = 0.989155, Final residual = 1.08144e-15, No Iterations 1
DILUPBiCGStab:  Solving for TReverse, Initial residual = 0.587372, Final residual = 7.76767e-16, No Iterations 1
Interpret 2473 / 2500
DILUPBiCGStab:  Solving for TReverse, Initial residual = 0.989319, Final residual = 1.1369e-15, No Iterations 1
DILUPBiCGStab:  Solving for TReverse, Initial residual = 0.580044, Final residual = 7.29286e-16, No Iterations 1
Interpret 2474 / 2500
DILUPBiCGStab:  Solving for TReverse, Initial residual = 0.989521, Final residual = 1.20727e-15, No Iterations 1
DILUPBiCGStab:  Solving for TReverse, Initial residual = 0.572927, Final residual = 7.52968e-16, No Iterations 1
Interpret 2475 / 2500
DILUPBiCGStab:  Solving for TReverse, Initial residual = 0.989778, Final residual = 1.16256e-15, No Iterations 1
DILUPBiCGStab:  Solving for TReverse, Initial residual = 0.566009, Final residual = 7.76656e-16, No Iterations 1
Interpret 2476 / 2500
DILUPBiCGStab:  Solving for TReverse, Initial residual = 0.990108, Final residual = 1.21898e-15, No Iterations 1
DILUPBiCGStab:  Solving for TReverse, Initial residual = 0.559281, Final residual = 7.9679e-16, No Iterations 1
Interpret 2477 / 2500
DILUPBiCGStab:  Solving for TReverse, Initial residual = 0.990533, Final residual = 1.43214e-15, No Iterations 1
DILUPBiCGStab:  Solving for TReverse, Initial residual = 0.552737, Final residual = 8.00385e-16, No Iterations 1
Interpret 2478 / 2500
DILUPBiCGStab:  Solving for TReverse, Initial residual = 0.991078, Final residual = 1.30298e-15, No Iterations 1
DILUPBiCGStab:  Solving for TReverse, Initial residual = 0.546367, Final residual = 7.71616e-16, No Iterations 1
Interpret 2479 / 2500
DILUPBiCGStab:  Solving for TReverse, Initial residual = 0.99177, Final residual = 1.3772e-15, No Iterations 1
DILUPBiCGStab:  Solving for TReverse, Initial residual = 0.54017, Final residual = 7.90901e-16, No Iterations 1
Interpret 2480 / 2500
DILUPBiCGStab:  Solving for TReverse, Initial residual = 0.992634, Final residual = 1.33236e-15, No Iterations 1
DILUPBiCGStab:  Solving for TReverse, Initial residual = 0.534147, Final residual = 8.24608e-16, No Iterations 1
Interpret 2481 / 2500
DILUPBiCGStab:  Solving for TReverse, Initial residual = 0.993698, Final residual = 1.42003e-15, No Iterations 1
DILUPBiCGStab:  Solving for TReverse, Initial residual = 0.528296, Final residual = 8.04508e-16, No Iterations 1
Interpret 2482 / 2500
DILUPBiCGStab:  Solving for TReverse, Initial residual = 0.994974, Final residual = 1.34658e-15, No Iterations 1
DILUPBiCGStab:  Solving for TReverse, Initial residual = 0.522619, Final residual = 7.59755e-16, No Iterations 1
Interpret 2483 / 2500
DILUPBiCGStab:  Solving for TReverse, Initial residual = 0.996484, Final residual = 1.48635e-15, No Iterations 1
DILUPBiCGStab:  Solving for TReverse, Initial residual = 0.517115, Final residual = 8.20976e-16, No Iterations 1
Interpret 2484 / 2500
DILUPBiCGStab:  Solving for TReverse, Initial residual = 0.99823, Final residual = 1.44423e-15, No Iterations 1
DILUPBiCGStab:  Solving for TReverse, Initial residual = 0.511792, Final residual = 8.03146e-16, No Iterations 1
Interpret 2485 / 2500
DILUPBiCGStab:  Solving for TReverse, Initial residual = 0.999795, Final residual = 1.53946e-15, No Iterations 1
DILUPBiCGStab:  Solving for TReverse, Initial residual = 0.506654, Final residual = 8.52731e-16, No Iterations 1
Interpret 2486 / 2500
DILUPBiCGStab:  Solving for TReverse, Initial residual = 0.997284, Final residual = 1.54789e-15, No Iterations 1
DILUPBiCGStab:  Solving for TReverse, Initial residual = 0.501707, Final residual = 8.40499e-16, No Iterations 1
Interpret 2487 / 2500
DILUPBiCGStab:  Solving for TReverse, Initial residual = 0.994542, Final residual = 1.54485e-15, No Iterations 1
DILUPBiCGStab:  Solving for TReverse, Initial residual = 0.496964, Final residual = 8.30163e-16, No Iterations 1
Interpret 2488 / 2500
DILUPBiCGStab:  Solving for TReverse, Initial residual = 0.991606, Final residual = 1.51329e-15, No Iterations 1
DILUPBiCGStab:  Solving for TReverse, Initial residual = 0.492434, Final residual = 8.46987e-16, No Iterations 1
Interpret 2489 / 2500
DILUPBiCGStab:  Solving for TReverse, Initial residual = 0.988526, Final residual = 1.56363e-15, No Iterations 1
DILUPBiCGStab:  Solving for TReverse, Initial residual = 0.488127, Final residual = 8.22858e-16, No Iterations 1
Interpret 2490 / 2500
DILUPBiCGStab:  Solving for TReverse, Initial residual = 0.985359, Final residual = 1.54567e-15, No Iterations 1
DILUPBiCGStab:  Solving for TReverse, Initial residual = 0.484056, Final residual = 8.18857e-16, No Iterations 1
Interpret 2491 / 2500
DILUPBiCGStab:  Solving for TReverse, Initial residual = 0.98217, Final residual = 1.61903e-15, No Iterations 1
DILUPBiCGStab:  Solving for TReverse, Initial residual = 0.480222, Final residual = 8.58113e-16, No Iterations 1
Interpret 2492 / 2500
DILUPBiCGStab:  Solving for TReverse, Initial residual = 0.979028, Final residual = 1.57257e-15, No Iterations 1
DILUPBiCGStab:  Solving for TReverse, Initial residual = 0.476621, Final residual = 8.77104e-16, No Iterations 1
Interpret 2493 / 2500
DILUPBiCGStab:  Solving for TReverse, Initial residual = 0.976002, Final residual = 1.58064e-15, No Iterations 1
DILUPBiCGStab:  Solving for TReverse, Initial residual = 0.473251, Final residual = 8.3256e-16, No Iterations 1
Interpret 2494 / 2500
DILUPBiCGStab:  Solving for TReverse, Initial residual = 0.973159, Final residual = 1.67325e-15, No Iterations 1
DILUPBiCGStab:  Solving for TReverse, Initial residual = 0.470105, Final residual = 8.82007e-16, No Iterations 1
Interpret 2495 / 2500
DILUPBiCGStab:  Solving for TReverse, Initial residual = 0.97056, Final residual = 1.67013e-15, No Iterations 1
DILUPBiCGStab:  Solving for TReverse, Initial residual = 0.467178, Final residual = 8.70983e-16, No Iterations 1
Interpret 2496 / 2500
DILUPBiCGStab:  Solving for TReverse, Initial residual = 0.96826, Final residual = 1.72088e-15, No Iterations 1
DILUPBiCGStab:  Solving for TReverse, Initial residual = 0.464464, Final residual = 9.2033e-16, No Iterations 1
Interpret 2497 / 2500
DILUPBiCGStab:  Solving for TReverse, Initial residual = 0.966303, Final residual = 1.67077e-15, No Iterations 1
DILUPBiCGStab:  Solving for TReverse, Initial residual = 0.461958, Final residual = 8.98571e-16, No Iterations 1
Interpret 2498 / 2500
DILUPBiCGStab:  Solving for TReverse, Initial residual = 0.964723, Final residual = 1.76923e-15, No Iterations 1
DILUPBiCGStab:  Solving for TReverse, Initial residual = 0.459651, Final residual = 8.77327e-16, No Iterations 1
Interpret 2499 / 2500
DILUPBiCGStab:  Solving for TReverse, Initial residual = 0.963906, Final residual = 1.72713e-15, No Iterations 1
DILUPBiCGStab:  Solving for TReverse, Initial residual = 0.428096, Final residual = 9.28612e-16, No Iterations 1
Reverse execution finished

